New Load.IP_224_389003013_M2  Bus1=BT3178.3.1 phases=1 conn=Delta Model=2 kV=0.22 kW=0.048 pf=0.92 Vminpu=0.92 Vmaxpu=1.50 daily=IP_1_Dia_util status=variable 
New Load.IP_224_389003013_M3  Bus1=BT3178.3.1 phases=1 conn=Delta Model=3 kV=0.22 kW=0.048 pf=0.92 Vminpu=0.92 Vmaxpu=1.50 daily=IP_1_Dia_util status=variable 
New Load.IP_250_380539859_M2  Bus1=BT2397.1.0 phases=1 conn=Wye Model=2 kV=0.127 kW=0.086 pf=0.92 Vminpu=0.92 Vmaxpu=1.50 daily=IP_1_Dia_util status=variable 
New Load.IP_250_380539859_M3  Bus1=BT2397.1.0 phases=1 conn=Wye Model=3 kV=0.127 kW=0.086 pf=0.92 Vminpu=0.92 Vmaxpu=1.50 daily=IP_1_Dia_util status=variable 
New Load.IP_241_380539869_M2  Bus1=BT2590.3.1 phases=1 conn=Delta Model=2 kV=0.22 kW=0.086 pf=0.92 Vminpu=0.92 Vmaxpu=1.50 daily=IP_1_Dia_util status=variable 
New Load.IP_241_380539869_M3  Bus1=BT2590.3.1 phases=1 conn=Delta Model=3 kV=0.22 kW=0.086 pf=0.92 Vminpu=0.92 Vmaxpu=1.50 daily=IP_1_Dia_util status=variable 
New Load.IP_242_380539875_M2  Bus1=BT2389.1.0 phases=1 conn=Wye Model=2 kV=0.127 kW=0.086 pf=0.92 Vminpu=0.92 Vmaxpu=1.50 daily=IP_1_Dia_util status=variable 
New Load.IP_242_380539875_M3  Bus1=BT2389.1.0 phases=1 conn=Wye Model=3 kV=0.127 kW=0.086 pf=0.92 Vminpu=0.92 Vmaxpu=1.50 daily=IP_1_Dia_util status=variable 
New Load.IP_236_380539901_M2  Bus1=BT3210.3.1 phases=1 conn=Delta Model=2 kV=0.22 kW=0.086 pf=0.92 Vminpu=0.92 Vmaxpu=1.50 daily=IP_1_Dia_util status=variable 
New Load.IP_236_380539901_M3  Bus1=BT3210.3.1 phases=1 conn=Delta Model=3 kV=0.22 kW=0.086 pf=0.92 Vminpu=0.92 Vmaxpu=1.50 daily=IP_1_Dia_util status=variable 
New Load.IP_256_381815279_M2  Bus1=BT3471.3.1 phases=1 conn=Delta Model=2 kV=0.22 kW=0.095 pf=0.92 Vminpu=0.92 Vmaxpu=1.50 daily=IP_1_Dia_util status=variable 
New Load.IP_256_381815279_M3  Bus1=BT3471.3.1 phases=1 conn=Delta Model=3 kV=0.22 kW=0.095 pf=0.92 Vminpu=0.92 Vmaxpu=1.50 daily=IP_1_Dia_util status=variable 
New Load.IP_223_382156765_M2  Bus1=BT3750.3.1 phases=1 conn=Delta Model=2 kV=0.22 kW=0.048 pf=0.92 Vminpu=0.92 Vmaxpu=1.50 daily=IP_1_Dia_util status=variable 
New Load.IP_223_382156765_M3  Bus1=BT3750.3.1 phases=1 conn=Delta Model=3 kV=0.22 kW=0.048 pf=0.92 Vminpu=0.92 Vmaxpu=1.50 daily=IP_1_Dia_util status=variable 
New Load.IP_223_382156768_M2  Bus1=BT3751.3.1 phases=1 conn=Delta Model=2 kV=0.22 kW=0.048 pf=0.92 Vminpu=0.92 Vmaxpu=1.50 daily=IP_1_Dia_util status=variable 
New Load.IP_223_382156768_M3  Bus1=BT3751.3.1 phases=1 conn=Delta Model=3 kV=0.22 kW=0.048 pf=0.92 Vminpu=0.92 Vmaxpu=1.50 daily=IP_1_Dia_util status=variable 
New Load.IP_317_390069013_M2  Bus1=BT2981.3.1 phases=1 conn=Delta Model=2 kV=0.22 kW=0.095 pf=0.92 Vminpu=0.92 Vmaxpu=1.50 daily=IP_1_Dia_util status=variable 
New Load.IP_317_390069013_M3  Bus1=BT2981.3.1 phases=1 conn=Delta Model=3 kV=0.22 kW=0.095 pf=0.92 Vminpu=0.92 Vmaxpu=1.50 daily=IP_1_Dia_util status=variable 
New Load.IP_223_390069148_M2  Bus1=BT3775.2.3 phases=1 conn=Delta Model=2 kV=0.22 kW=0.095 pf=0.92 Vminpu=0.92 Vmaxpu=1.50 daily=IP_1_Dia_util status=variable 
New Load.IP_223_390069148_M3  Bus1=BT3775.2.3 phases=1 conn=Delta Model=3 kV=0.22 kW=0.095 pf=0.92 Vminpu=0.92 Vmaxpu=1.50 daily=IP_1_Dia_util status=variable 
New Load.IP_223_390069151_M2  Bus1=BT3776.2.3 phases=1 conn=Delta Model=2 kV=0.22 kW=0.095 pf=0.92 Vminpu=0.92 Vmaxpu=1.50 daily=IP_1_Dia_util status=variable 
New Load.IP_223_390069151_M3  Bus1=BT3776.2.3 phases=1 conn=Delta Model=3 kV=0.22 kW=0.095 pf=0.92 Vminpu=0.92 Vmaxpu=1.50 daily=IP_1_Dia_util status=variable 
New Load.IP_228_390069160_M2  Bus1=BT3778.2.3 phases=1 conn=Delta Model=2 kV=0.22 kW=0.095 pf=0.92 Vminpu=0.92 Vmaxpu=1.50 daily=IP_1_Dia_util status=variable 
New Load.IP_228_390069160_M3  Bus1=BT3778.2.3 phases=1 conn=Delta Model=3 kV=0.22 kW=0.095 pf=0.92 Vminpu=0.92 Vmaxpu=1.50 daily=IP_1_Dia_util status=variable 
New Load.IP_228_390069163_M2  Bus1=BT3780.2.3 phases=1 conn=Delta Model=2 kV=0.22 kW=0.095 pf=0.92 Vminpu=0.92 Vmaxpu=1.50 daily=IP_1_Dia_util status=variable 
New Load.IP_228_390069163_M3  Bus1=BT3780.2.3 phases=1 conn=Delta Model=3 kV=0.22 kW=0.095 pf=0.92 Vminpu=0.92 Vmaxpu=1.50 daily=IP_1_Dia_util status=variable 
New Load.IP_228_390069166_M2  Bus1=BT3781.2.3 phases=1 conn=Delta Model=2 kV=0.22 kW=0.095 pf=0.92 Vminpu=0.92 Vmaxpu=1.50 daily=IP_1_Dia_util status=variable 
New Load.IP_228_390069166_M3  Bus1=BT3781.2.3 phases=1 conn=Delta Model=3 kV=0.22 kW=0.095 pf=0.92 Vminpu=0.92 Vmaxpu=1.50 daily=IP_1_Dia_util status=variable 
New Load.IP_385_390105672_M2  Bus1=BT3397.3.1 phases=1 conn=Delta Model=2 kV=0.22 kW=0.095 pf=0.92 Vminpu=0.92 Vmaxpu=1.50 daily=IP_1_Dia_util status=variable 
New Load.IP_385_390105672_M3  Bus1=BT3397.3.1 phases=1 conn=Delta Model=3 kV=0.22 kW=0.095 pf=0.92 Vminpu=0.92 Vmaxpu=1.50 daily=IP_1_Dia_util status=variable 
New Load.IP_385_390105735_M2  Bus1=BT2532.1.0 phases=1 conn=Wye Model=2 kV=0.127 kW=0.095 pf=0.92 Vminpu=0.92 Vmaxpu=1.50 daily=IP_1_Dia_util status=variable 
New Load.IP_385_390105735_M3  Bus1=BT2532.1.0 phases=1 conn=Wye Model=3 kV=0.127 kW=0.095 pf=0.92 Vminpu=0.92 Vmaxpu=1.50 daily=IP_1_Dia_util status=variable 
New Load.IP_248_363605583_M2  Bus1=BT2565.3.1 phases=1 conn=Delta Model=2 kV=0.22 kW=0.1525 pf=0.92 Vminpu=0.92 Vmaxpu=1.50 daily=IP_1_Dia_util status=variable 
New Load.IP_248_363605583_M3  Bus1=BT2565.3.1 phases=1 conn=Delta Model=3 kV=0.22 kW=0.1525 pf=0.92 Vminpu=0.92 Vmaxpu=1.50 daily=IP_1_Dia_util status=variable 
New Load.IP_248_363605601_M2  Bus1=BT2567.3.1 phases=1 conn=Delta Model=2 kV=0.22 kW=0.1525 pf=0.92 Vminpu=0.92 Vmaxpu=1.50 daily=IP_1_Dia_util status=variable 
New Load.IP_248_363605601_M3  Bus1=BT2567.3.1 phases=1 conn=Delta Model=3 kV=0.22 kW=0.1525 pf=0.92 Vminpu=0.92 Vmaxpu=1.50 daily=IP_1_Dia_util status=variable 
New Load.IP_248_363605727_M2  Bus1=BT2551.3.1 phases=1 conn=Delta Model=2 kV=0.22 kW=0.1525 pf=0.92 Vminpu=0.92 Vmaxpu=1.50 daily=IP_1_Dia_util status=variable 
New Load.IP_248_363605727_M3  Bus1=BT2551.3.1 phases=1 conn=Delta Model=3 kV=0.22 kW=0.1525 pf=0.92 Vminpu=0.92 Vmaxpu=1.50 daily=IP_1_Dia_util status=variable 
New Load.IP_248_363605776_M2  Bus1=BT2553.3.1 phases=1 conn=Delta Model=2 kV=0.22 kW=0.1525 pf=0.92 Vminpu=0.92 Vmaxpu=1.50 daily=IP_1_Dia_util status=variable 
New Load.IP_248_363605776_M3  Bus1=BT2553.3.1 phases=1 conn=Delta Model=3 kV=0.22 kW=0.1525 pf=0.92 Vminpu=0.92 Vmaxpu=1.50 daily=IP_1_Dia_util status=variable 
New Load.IP_248_363605813_M2  Bus1=BT2555.3.1 phases=1 conn=Delta Model=2 kV=0.22 kW=0.1525 pf=0.92 Vminpu=0.92 Vmaxpu=1.50 daily=IP_1_Dia_util status=variable 
New Load.IP_248_363605813_M3  Bus1=BT2555.3.1 phases=1 conn=Delta Model=3 kV=0.22 kW=0.1525 pf=0.92 Vminpu=0.92 Vmaxpu=1.50 daily=IP_1_Dia_util status=variable 
New Load.IP_248_363605816_M2  Bus1=BT2395.1.0 phases=1 conn=Wye Model=2 kV=0.127 kW=0.1525 pf=0.92 Vminpu=0.92 Vmaxpu=1.50 daily=IP_1_Dia_util status=variable 
New Load.IP_248_363605816_M3  Bus1=BT2395.1.0 phases=1 conn=Wye Model=3 kV=0.127 kW=0.1525 pf=0.92 Vminpu=0.92 Vmaxpu=1.50 daily=IP_1_Dia_util status=variable 
New Load.IP_248_363605842_M2  Bus1=BT2557.3.1 phases=1 conn=Delta Model=2 kV=0.22 kW=0.1525 pf=0.92 Vminpu=0.92 Vmaxpu=1.50 daily=IP_1_Dia_util status=variable 
New Load.IP_248_363605842_M3  Bus1=BT2557.3.1 phases=1 conn=Delta Model=3 kV=0.22 kW=0.1525 pf=0.92 Vminpu=0.92 Vmaxpu=1.50 daily=IP_1_Dia_util status=variable 
New Load.IP_248_363605875_M2  Bus1=BT2559.3.1 phases=1 conn=Delta Model=2 kV=0.22 kW=0.1525 pf=0.92 Vminpu=0.92 Vmaxpu=1.50 daily=IP_1_Dia_util status=variable 
New Load.IP_248_363605875_M3  Bus1=BT2559.3.1 phases=1 conn=Delta Model=3 kV=0.22 kW=0.1525 pf=0.92 Vminpu=0.92 Vmaxpu=1.50 daily=IP_1_Dia_util status=variable 
New Load.IP_248_363605928_M2  Bus1=BT2558.3.1 phases=1 conn=Delta Model=2 kV=0.22 kW=0.1525 pf=0.92 Vminpu=0.92 Vmaxpu=1.50 daily=IP_1_Dia_util status=variable 
New Load.IP_248_363605928_M3  Bus1=BT2558.3.1 phases=1 conn=Delta Model=3 kV=0.22 kW=0.1525 pf=0.92 Vminpu=0.92 Vmaxpu=1.50 daily=IP_1_Dia_util status=variable 
New Load.IP_248_363605932_M2  Bus1=BT2561.3.1 phases=1 conn=Delta Model=2 kV=0.22 kW=0.1525 pf=0.92 Vminpu=0.92 Vmaxpu=1.50 daily=IP_1_Dia_util status=variable 
New Load.IP_248_363605932_M3  Bus1=BT2561.3.1 phases=1 conn=Delta Model=3 kV=0.22 kW=0.1525 pf=0.92 Vminpu=0.92 Vmaxpu=1.50 daily=IP_1_Dia_util status=variable 
New Load.IP_248_363605936_M2  Bus1=BT2562.3.1 phases=1 conn=Delta Model=2 kV=0.22 kW=0.1525 pf=0.92 Vminpu=0.92 Vmaxpu=1.50 daily=IP_1_Dia_util status=variable 
New Load.IP_248_363605936_M3  Bus1=BT2562.3.1 phases=1 conn=Delta Model=3 kV=0.22 kW=0.1525 pf=0.92 Vminpu=0.92 Vmaxpu=1.50 daily=IP_1_Dia_util status=variable 
New Load.IP_236_363605994_M2  Bus1=BT2569.3.1 phases=1 conn=Delta Model=2 kV=0.22 kW=0.086 pf=0.92 Vminpu=0.92 Vmaxpu=1.50 daily=IP_1_Dia_util status=variable 
New Load.IP_236_363605994_M3  Bus1=BT2569.3.1 phases=1 conn=Delta Model=3 kV=0.22 kW=0.086 pf=0.92 Vminpu=0.92 Vmaxpu=1.50 daily=IP_1_Dia_util status=variable 
New Load.IP_236_363606057_M2  Bus1=BT2383.1.0 phases=1 conn=Wye Model=2 kV=0.127 kW=0.086 pf=0.92 Vminpu=0.92 Vmaxpu=1.50 daily=IP_1_Dia_util status=variable 
New Load.IP_236_363606057_M3  Bus1=BT2383.1.0 phases=1 conn=Wye Model=3 kV=0.127 kW=0.086 pf=0.92 Vminpu=0.92 Vmaxpu=1.50 daily=IP_1_Dia_util status=variable 
New Load.IP_203_363606176_M2  Bus1=BT2571.3.1 phases=1 conn=Delta Model=2 kV=0.22 kW=0.0535 pf=0.92 Vminpu=0.92 Vmaxpu=1.50 daily=IP_1_Dia_util status=variable 
New Load.IP_203_363606176_M3  Bus1=BT2571.3.1 phases=1 conn=Delta Model=3 kV=0.22 kW=0.0535 pf=0.92 Vminpu=0.92 Vmaxpu=1.50 daily=IP_1_Dia_util status=variable 
New Load.IP_203_363606179_M2  Bus1=BT2573.3.1 phases=1 conn=Delta Model=2 kV=0.22 kW=0.1525 pf=0.92 Vminpu=0.92 Vmaxpu=1.50 daily=IP_1_Dia_util status=variable 
New Load.IP_203_363606179_M3  Bus1=BT2573.3.1 phases=1 conn=Delta Model=3 kV=0.22 kW=0.1525 pf=0.92 Vminpu=0.92 Vmaxpu=1.50 daily=IP_1_Dia_util status=variable 
New Load.IP_203_363606212_M2  Bus1=BT2575.3.1 phases=1 conn=Delta Model=2 kV=0.22 kW=0.0535 pf=0.92 Vminpu=0.92 Vmaxpu=1.50 daily=IP_1_Dia_util status=variable 
New Load.IP_203_363606212_M3  Bus1=BT2575.3.1 phases=1 conn=Delta Model=3 kV=0.22 kW=0.0535 pf=0.92 Vminpu=0.92 Vmaxpu=1.50 daily=IP_1_Dia_util status=variable 
New Load.IP_203_363606275_M2  Bus1=BT2578.3.1 phases=1 conn=Delta Model=2 kV=0.22 kW=0.095 pf=0.92 Vminpu=0.92 Vmaxpu=1.50 daily=IP_1_Dia_util status=variable 
New Load.IP_203_363606275_M3  Bus1=BT2578.3.1 phases=1 conn=Delta Model=3 kV=0.22 kW=0.095 pf=0.92 Vminpu=0.92 Vmaxpu=1.50 daily=IP_1_Dia_util status=variable 
New Load.IP_203_363606278_M2  Bus1=BT2576.3.1 phases=1 conn=Delta Model=2 kV=0.22 kW=0.1525 pf=0.92 Vminpu=0.92 Vmaxpu=1.50 daily=IP_1_Dia_util status=variable 
New Load.IP_203_363606278_M3  Bus1=BT2576.3.1 phases=1 conn=Delta Model=3 kV=0.22 kW=0.1525 pf=0.92 Vminpu=0.92 Vmaxpu=1.50 daily=IP_1_Dia_util status=variable 
New Load.IP_203_363606296_M2  Bus1=BT2579.3.1 phases=1 conn=Delta Model=2 kV=0.22 kW=0.095 pf=0.92 Vminpu=0.92 Vmaxpu=1.50 daily=IP_1_Dia_util status=variable 
New Load.IP_203_363606296_M3  Bus1=BT2579.3.1 phases=1 conn=Delta Model=3 kV=0.22 kW=0.095 pf=0.92 Vminpu=0.92 Vmaxpu=1.50 daily=IP_1_Dia_util status=variable 
New Load.IP_203_363606392_M2  Bus1=BT2580.3.1 phases=1 conn=Delta Model=2 kV=0.22 kW=0.095 pf=0.92 Vminpu=0.92 Vmaxpu=1.50 daily=IP_1_Dia_util status=variable 
New Load.IP_203_363606392_M3  Bus1=BT2580.3.1 phases=1 conn=Delta Model=3 kV=0.22 kW=0.095 pf=0.92 Vminpu=0.92 Vmaxpu=1.50 daily=IP_1_Dia_util status=variable 
New Load.IP_203_363606410_M2  Bus1=BT2350.1.0 phases=1 conn=Wye Model=2 kV=0.127 kW=0.1525 pf=0.92 Vminpu=0.92 Vmaxpu=1.50 daily=IP_1_Dia_util status=variable 
New Load.IP_203_363606410_M3  Bus1=BT2350.1.0 phases=1 conn=Wye Model=3 kV=0.127 kW=0.1525 pf=0.92 Vminpu=0.92 Vmaxpu=1.50 daily=IP_1_Dia_util status=variable 
New Load.IP_203_363606473_M2  Bus1=BT2582.3.1 phases=1 conn=Delta Model=2 kV=0.22 kW=0.1525 pf=0.92 Vminpu=0.92 Vmaxpu=1.50 daily=IP_1_Dia_util status=variable 
New Load.IP_203_363606473_M3  Bus1=BT2582.3.1 phases=1 conn=Delta Model=3 kV=0.22 kW=0.1525 pf=0.92 Vminpu=0.92 Vmaxpu=1.50 daily=IP_1_Dia_util status=variable 
New Load.IP_203_363606522_M2  Bus1=BT2583.3.1 phases=1 conn=Delta Model=2 kV=0.22 kW=0.1525 pf=0.92 Vminpu=0.92 Vmaxpu=1.50 daily=IP_1_Dia_util status=variable 
New Load.IP_203_363606522_M3  Bus1=BT2583.3.1 phases=1 conn=Delta Model=3 kV=0.22 kW=0.1525 pf=0.92 Vminpu=0.92 Vmaxpu=1.50 daily=IP_1_Dia_util status=variable 
New Load.IP_203_363606571_M2  Bus1=BT2584.3.1 phases=1 conn=Delta Model=2 kV=0.22 kW=0.1525 pf=0.92 Vminpu=0.92 Vmaxpu=1.50 daily=IP_1_Dia_util status=variable 
New Load.IP_203_363606571_M3  Bus1=BT2584.3.1 phases=1 conn=Delta Model=3 kV=0.22 kW=0.1525 pf=0.92 Vminpu=0.92 Vmaxpu=1.50 daily=IP_1_Dia_util status=variable 
New Load.IP_203_363606620_M2  Bus1=BT2585.3.1 phases=1 conn=Delta Model=2 kV=0.22 kW=0.1525 pf=0.92 Vminpu=0.92 Vmaxpu=1.50 daily=IP_1_Dia_util status=variable 
New Load.IP_203_363606620_M3  Bus1=BT2585.3.1 phases=1 conn=Delta Model=3 kV=0.22 kW=0.1525 pf=0.92 Vminpu=0.92 Vmaxpu=1.50 daily=IP_1_Dia_util status=variable 
New Load.IP_203_363606638_M2  Bus1=BT2586.3.1 phases=1 conn=Delta Model=2 kV=0.22 kW=0.1525 pf=0.92 Vminpu=0.92 Vmaxpu=1.50 daily=IP_1_Dia_util status=variable 
New Load.IP_203_363606638_M3  Bus1=BT2586.3.1 phases=1 conn=Delta Model=3 kV=0.22 kW=0.1525 pf=0.92 Vminpu=0.92 Vmaxpu=1.50 daily=IP_1_Dia_util status=variable 
New Load.IP_203_363606641_M2  Bus1=BT2587.3.1 phases=1 conn=Delta Model=2 kV=0.22 kW=0.1525 pf=0.92 Vminpu=0.92 Vmaxpu=1.50 daily=IP_1_Dia_util status=variable 
New Load.IP_203_363606641_M3  Bus1=BT2587.3.1 phases=1 conn=Delta Model=3 kV=0.22 kW=0.1525 pf=0.92 Vminpu=0.92 Vmaxpu=1.50 daily=IP_1_Dia_util status=variable 
New Load.IP_241_363606674_M2  Bus1=BT2590.3.1 phases=1 conn=Delta Model=2 kV=0.22 kW=0.086 pf=0.92 Vminpu=0.92 Vmaxpu=1.50 daily=IP_1_Dia_util status=variable 
New Load.IP_241_363606674_M3  Bus1=BT2590.3.1 phases=1 conn=Delta Model=3 kV=0.22 kW=0.086 pf=0.92 Vminpu=0.92 Vmaxpu=1.50 daily=IP_1_Dia_util status=variable 
New Load.IP_241_363606695_M2  Bus1=BT2594.3.1 phases=1 conn=Delta Model=2 kV=0.22 kW=0.086 pf=0.92 Vminpu=0.92 Vmaxpu=1.50 daily=IP_1_Dia_util status=variable 
New Load.IP_241_363606695_M3  Bus1=BT2594.3.1 phases=1 conn=Delta Model=3 kV=0.22 kW=0.086 pf=0.92 Vminpu=0.92 Vmaxpu=1.50 daily=IP_1_Dia_util status=variable 
New Load.IP_241_363606833_M2  Bus1=BT2388.1.0 phases=1 conn=Wye Model=2 kV=0.127 kW=0.086 pf=0.92 Vminpu=0.92 Vmaxpu=1.50 daily=IP_1_Dia_util status=variable 
New Load.IP_241_363606833_M3  Bus1=BT2388.1.0 phases=1 conn=Wye Model=3 kV=0.127 kW=0.086 pf=0.92 Vminpu=0.92 Vmaxpu=1.50 daily=IP_1_Dia_util status=variable 
New Load.IP_255_363610788_M2  Bus1=BT2596.3.1 phases=1 conn=Delta Model=2 kV=0.22 kW=0.0535 pf=0.92 Vminpu=0.92 Vmaxpu=1.50 daily=IP_1_Dia_util status=variable 
New Load.IP_255_363610788_M3  Bus1=BT2596.3.1 phases=1 conn=Delta Model=3 kV=0.22 kW=0.0535 pf=0.92 Vminpu=0.92 Vmaxpu=1.50 daily=IP_1_Dia_util status=variable 
New Load.IP_255_363610837_M2  Bus1=BT2598.3.1 phases=1 conn=Delta Model=2 kV=0.22 kW=0.086 pf=0.92 Vminpu=0.92 Vmaxpu=1.50 daily=IP_1_Dia_util status=variable 
New Load.IP_255_363610837_M3  Bus1=BT2598.3.1 phases=1 conn=Delta Model=3 kV=0.22 kW=0.086 pf=0.92 Vminpu=0.92 Vmaxpu=1.50 daily=IP_1_Dia_util status=variable 
New Load.IP_255_363610900_M2  Bus1=BT2601.3.1 phases=1 conn=Delta Model=2 kV=0.22 kW=0.086 pf=0.92 Vminpu=0.92 Vmaxpu=1.50 daily=IP_1_Dia_util status=variable 
New Load.IP_255_363610900_M3  Bus1=BT2601.3.1 phases=1 conn=Delta Model=3 kV=0.22 kW=0.086 pf=0.92 Vminpu=0.92 Vmaxpu=1.50 daily=IP_1_Dia_util status=variable 
New Load.IP_255_363610903_M2  Bus1=BT2600.3.1 phases=1 conn=Delta Model=2 kV=0.22 kW=0.0535 pf=0.92 Vminpu=0.92 Vmaxpu=1.50 daily=IP_1_Dia_util status=variable 
New Load.IP_255_363610903_M3  Bus1=BT2600.3.1 phases=1 conn=Delta Model=3 kV=0.22 kW=0.0535 pf=0.92 Vminpu=0.92 Vmaxpu=1.50 daily=IP_1_Dia_util status=variable 
New Load.IP_255_363610982_M2  Bus1=BT2602.3.1 phases=1 conn=Delta Model=2 kV=0.22 kW=0.086 pf=0.92 Vminpu=0.92 Vmaxpu=1.50 daily=IP_1_Dia_util status=variable 
New Load.IP_255_363610982_M3  Bus1=BT2602.3.1 phases=1 conn=Delta Model=3 kV=0.22 kW=0.086 pf=0.92 Vminpu=0.92 Vmaxpu=1.50 daily=IP_1_Dia_util status=variable 
New Load.IP_255_363611015_M2  Bus1=BT2604.3.1 phases=1 conn=Delta Model=2 kV=0.22 kW=0.086 pf=0.92 Vminpu=0.92 Vmaxpu=1.50 daily=IP_1_Dia_util status=variable 
New Load.IP_255_363611015_M3  Bus1=BT2604.3.1 phases=1 conn=Delta Model=3 kV=0.22 kW=0.086 pf=0.92 Vminpu=0.92 Vmaxpu=1.50 daily=IP_1_Dia_util status=variable 
New Load.IP_255_363611048_M2  Bus1=BT2605.3.1 phases=1 conn=Delta Model=2 kV=0.22 kW=0.086 pf=0.92 Vminpu=0.92 Vmaxpu=1.50 daily=IP_1_Dia_util status=variable 
New Load.IP_255_363611048_M3  Bus1=BT2605.3.1 phases=1 conn=Delta Model=3 kV=0.22 kW=0.086 pf=0.92 Vminpu=0.92 Vmaxpu=1.50 daily=IP_1_Dia_util status=variable 
New Load.IP_255_363611066_M2  Bus1=BT2606.3.1 phases=1 conn=Delta Model=2 kV=0.22 kW=0.08 pf=0.92 Vminpu=0.92 Vmaxpu=1.50 daily=IP_1_Dia_util status=variable 
New Load.IP_255_363611066_M3  Bus1=BT2606.3.1 phases=1 conn=Delta Model=3 kV=0.22 kW=0.08 pf=0.92 Vminpu=0.92 Vmaxpu=1.50 daily=IP_1_Dia_util status=variable 
New Load.IP_255_363611130_M2  Bus1=BT2607.3.1 phases=1 conn=Delta Model=2 kV=0.22 kW=0.086 pf=0.92 Vminpu=0.92 Vmaxpu=1.50 daily=IP_1_Dia_util status=variable 
New Load.IP_255_363611130_M3  Bus1=BT2607.3.1 phases=1 conn=Delta Model=3 kV=0.22 kW=0.086 pf=0.92 Vminpu=0.92 Vmaxpu=1.50 daily=IP_1_Dia_util status=variable 
New Load.IP_255_363611203_M2  Bus1=BT2402.1.0 phases=1 conn=Wye Model=2 kV=0.127 kW=0.0535 pf=0.92 Vminpu=0.92 Vmaxpu=1.50 daily=IP_1_Dia_util status=variable 
New Load.IP_255_363611203_M3  Bus1=BT2402.1.0 phases=1 conn=Wye Model=3 kV=0.127 kW=0.0535 pf=0.92 Vminpu=0.92 Vmaxpu=1.50 daily=IP_1_Dia_util status=variable 
New Load.IP_255_363611237_M2  Bus1=BT2609.3.1 phases=1 conn=Delta Model=2 kV=0.22 kW=0.048 pf=0.92 Vminpu=0.92 Vmaxpu=1.50 daily=IP_1_Dia_util status=variable 
New Load.IP_255_363611237_M3  Bus1=BT2609.3.1 phases=1 conn=Delta Model=3 kV=0.22 kW=0.048 pf=0.92 Vminpu=0.92 Vmaxpu=1.50 daily=IP_1_Dia_util status=variable 
New Load.IP_255_363611378_M2  Bus1=BT2611.3.1 phases=1 conn=Delta Model=2 kV=0.22 kW=0.0535 pf=0.92 Vminpu=0.92 Vmaxpu=1.50 daily=IP_1_Dia_util status=variable 
New Load.IP_255_363611378_M3  Bus1=BT2611.3.1 phases=1 conn=Delta Model=3 kV=0.22 kW=0.0535 pf=0.92 Vminpu=0.92 Vmaxpu=1.50 daily=IP_1_Dia_util status=variable 
New Load.IP_255_363611411_M2  Bus1=BT2613.3.1 phases=1 conn=Delta Model=2 kV=0.22 kW=0.0535 pf=0.92 Vminpu=0.92 Vmaxpu=1.50 daily=IP_1_Dia_util status=variable 
New Load.IP_255_363611411_M3  Bus1=BT2613.3.1 phases=1 conn=Delta Model=3 kV=0.22 kW=0.0535 pf=0.92 Vminpu=0.92 Vmaxpu=1.50 daily=IP_1_Dia_util status=variable 
New Load.IP_255_363611444_M2  Bus1=BT2614.3.1 phases=1 conn=Delta Model=2 kV=0.22 kW=0.048 pf=0.92 Vminpu=0.92 Vmaxpu=1.50 daily=IP_1_Dia_util status=variable 
New Load.IP_255_363611444_M3  Bus1=BT2614.3.1 phases=1 conn=Delta Model=3 kV=0.22 kW=0.048 pf=0.92 Vminpu=0.92 Vmaxpu=1.50 daily=IP_1_Dia_util status=variable 
New Load.IP_255_363611478_M2  Bus1=BT2615.3.1 phases=1 conn=Delta Model=2 kV=0.22 kW=0.0535 pf=0.92 Vminpu=0.92 Vmaxpu=1.50 daily=IP_1_Dia_util status=variable 
New Load.IP_255_363611478_M3  Bus1=BT2615.3.1 phases=1 conn=Delta Model=3 kV=0.22 kW=0.0535 pf=0.92 Vminpu=0.92 Vmaxpu=1.50 daily=IP_1_Dia_util status=variable 
New Load.IP_255_363611589_M2  Bus1=BT2616.3.1 phases=1 conn=Delta Model=2 kV=0.22 kW=0.08 pf=0.92 Vminpu=0.92 Vmaxpu=1.50 daily=IP_1_Dia_util status=variable 
New Load.IP_255_363611589_M3  Bus1=BT2616.3.1 phases=1 conn=Delta Model=3 kV=0.22 kW=0.08 pf=0.92 Vminpu=0.92 Vmaxpu=1.50 daily=IP_1_Dia_util status=variable 
New Load.IP_239_363615214_M2  Bus1=BT2621.3.1 phases=1 conn=Delta Model=2 kV=0.22 kW=0.086 pf=0.92 Vminpu=0.92 Vmaxpu=1.50 daily=IP_1_Dia_util status=variable 
New Load.IP_239_363615214_M3  Bus1=BT2621.3.1 phases=1 conn=Delta Model=3 kV=0.22 kW=0.086 pf=0.92 Vminpu=0.92 Vmaxpu=1.50 daily=IP_1_Dia_util status=variable 
New Load.IP_239_363615275_M2  Bus1=BT2623.3.1 phases=1 conn=Delta Model=2 kV=0.22 kW=0.086 pf=0.92 Vminpu=0.92 Vmaxpu=1.50 daily=IP_1_Dia_util status=variable 
New Load.IP_239_363615275_M3  Bus1=BT2623.3.1 phases=1 conn=Delta Model=3 kV=0.22 kW=0.086 pf=0.92 Vminpu=0.92 Vmaxpu=1.50 daily=IP_1_Dia_util status=variable 
New Load.IP_239_363615278_M2  Bus1=BT2625.3.1 phases=1 conn=Delta Model=2 kV=0.22 kW=0.086 pf=0.92 Vminpu=0.92 Vmaxpu=1.50 daily=IP_1_Dia_util status=variable 
New Load.IP_239_363615278_M3  Bus1=BT2625.3.1 phases=1 conn=Delta Model=3 kV=0.22 kW=0.086 pf=0.92 Vminpu=0.92 Vmaxpu=1.50 daily=IP_1_Dia_util status=variable 
New Load.IP_239_363615281_M2  Bus1=BT2628.3.1 phases=1 conn=Delta Model=2 kV=0.22 kW=0.086 pf=0.92 Vminpu=0.92 Vmaxpu=1.50 daily=IP_1_Dia_util status=variable 
New Load.IP_239_363615281_M3  Bus1=BT2628.3.1 phases=1 conn=Delta Model=3 kV=0.22 kW=0.086 pf=0.92 Vminpu=0.92 Vmaxpu=1.50 daily=IP_1_Dia_util status=variable 
New Load.IP_239_363615344_M2  Bus1=BT2626.3.1 phases=1 conn=Delta Model=2 kV=0.22 kW=0.086 pf=0.92 Vminpu=0.92 Vmaxpu=1.50 daily=IP_1_Dia_util status=variable 
New Load.IP_239_363615344_M3  Bus1=BT2626.3.1 phases=1 conn=Delta Model=3 kV=0.22 kW=0.086 pf=0.92 Vminpu=0.92 Vmaxpu=1.50 daily=IP_1_Dia_util status=variable 
New Load.IP_239_363615472_M2  Bus1=BT2386.1.0 phases=1 conn=Wye Model=2 kV=0.127 kW=0.086 pf=0.92 Vminpu=0.92 Vmaxpu=1.50 daily=IP_1_Dia_util status=variable 
New Load.IP_239_363615472_M3  Bus1=BT2386.1.0 phases=1 conn=Wye Model=3 kV=0.127 kW=0.086 pf=0.92 Vminpu=0.92 Vmaxpu=1.50 daily=IP_1_Dia_util status=variable 
New Load.IP_239_363615505_M2  Bus1=BT2629.3.1 phases=1 conn=Delta Model=2 kV=0.22 kW=0.086 pf=0.92 Vminpu=0.92 Vmaxpu=1.50 daily=IP_1_Dia_util status=variable 
New Load.IP_239_363615505_M3  Bus1=BT2629.3.1 phases=1 conn=Delta Model=3 kV=0.22 kW=0.086 pf=0.92 Vminpu=0.92 Vmaxpu=1.50 daily=IP_1_Dia_util status=variable 
New Load.IP_239_363615571_M2  Bus1=BT2631.3.1 phases=1 conn=Delta Model=2 kV=0.22 kW=0.086 pf=0.92 Vminpu=0.92 Vmaxpu=1.50 daily=IP_1_Dia_util status=variable 
New Load.IP_239_363615571_M3  Bus1=BT2631.3.1 phases=1 conn=Delta Model=3 kV=0.22 kW=0.086 pf=0.92 Vminpu=0.92 Vmaxpu=1.50 daily=IP_1_Dia_util status=variable 
New Load.IP_239_363615619_M2  Bus1=BT2633.3.1 phases=1 conn=Delta Model=2 kV=0.22 kW=0.086 pf=0.92 Vminpu=0.92 Vmaxpu=1.50 daily=IP_1_Dia_util status=variable 
New Load.IP_239_363615619_M3  Bus1=BT2633.3.1 phases=1 conn=Delta Model=3 kV=0.22 kW=0.086 pf=0.92 Vminpu=0.92 Vmaxpu=1.50 daily=IP_1_Dia_util status=variable 
New Load.IP_239_363615746_M2  Bus1=BT2634.3.1 phases=1 conn=Delta Model=2 kV=0.22 kW=0.086 pf=0.92 Vminpu=0.92 Vmaxpu=1.50 daily=IP_1_Dia_util status=variable 
New Load.IP_239_363615746_M3  Bus1=BT2634.3.1 phases=1 conn=Delta Model=3 kV=0.22 kW=0.086 pf=0.92 Vminpu=0.92 Vmaxpu=1.50 daily=IP_1_Dia_util status=variable 
New Load.IP_330_363615928_M2  Bus1=BT2477.1.0 phases=1 conn=Wye Model=2 kV=0.127 kW=0.086 pf=0.92 Vminpu=0.92 Vmaxpu=1.50 daily=IP_1_Dia_util status=variable 
New Load.IP_330_363615928_M3  Bus1=BT2477.1.0 phases=1 conn=Wye Model=3 kV=0.127 kW=0.086 pf=0.92 Vminpu=0.92 Vmaxpu=1.50 daily=IP_1_Dia_util status=variable 
New Load.IP_13_363631171_M2  Bus1=BT2160.1.0 phases=1 conn=Wye Model=2 kV=0.127 kW=0.0535 pf=0.92 Vminpu=0.92 Vmaxpu=1.50 daily=IP_1_Dia_util status=variable 
New Load.IP_13_363631171_M3  Bus1=BT2160.1.0 phases=1 conn=Wye Model=3 kV=0.127 kW=0.0535 pf=0.92 Vminpu=0.92 Vmaxpu=1.50 daily=IP_1_Dia_util status=variable 
New Load.IP_13_363631249_M2  Bus1=BT2639.3.1 phases=1 conn=Delta Model=2 kV=0.22 kW=0.0535 pf=0.92 Vminpu=0.92 Vmaxpu=1.50 daily=IP_1_Dia_util status=variable 
New Load.IP_13_363631249_M3  Bus1=BT2639.3.1 phases=1 conn=Delta Model=3 kV=0.22 kW=0.0535 pf=0.92 Vminpu=0.92 Vmaxpu=1.50 daily=IP_1_Dia_util status=variable 
New Load.IP_229_363631320_M2  Bus1=BT2641.3.1 phases=1 conn=Delta Model=2 kV=0.22 kW=0.05 pf=0.92 Vminpu=0.92 Vmaxpu=1.50 daily=IP_1_Dia_util status=variable 
New Load.IP_229_363631320_M3  Bus1=BT2641.3.1 phases=1 conn=Delta Model=3 kV=0.22 kW=0.05 pf=0.92 Vminpu=0.92 Vmaxpu=1.50 daily=IP_1_Dia_util status=variable 
New Load.IP_229_363631413_M2  Bus1=BT2643.3.1 phases=1 conn=Delta Model=2 kV=0.22 kW=0.0535 pf=0.92 Vminpu=0.92 Vmaxpu=1.50 daily=IP_1_Dia_util status=variable 
New Load.IP_229_363631413_M3  Bus1=BT2643.3.1 phases=1 conn=Delta Model=3 kV=0.22 kW=0.0535 pf=0.92 Vminpu=0.92 Vmaxpu=1.50 daily=IP_1_Dia_util status=variable 
New Load.IP_229_363631535_M2  Bus1=BT2645.3.1 phases=1 conn=Delta Model=2 kV=0.22 kW=0.0535 pf=0.92 Vminpu=0.92 Vmaxpu=1.50 daily=IP_1_Dia_util status=variable 
New Load.IP_229_363631535_M3  Bus1=BT2645.3.1 phases=1 conn=Delta Model=3 kV=0.22 kW=0.0535 pf=0.92 Vminpu=0.92 Vmaxpu=1.50 daily=IP_1_Dia_util status=variable 
New Load.IP_229_363631570_M2  Bus1=BT2647.3.1 phases=1 conn=Delta Model=2 kV=0.22 kW=0.0535 pf=0.92 Vminpu=0.92 Vmaxpu=1.50 daily=IP_1_Dia_util status=variable 
New Load.IP_229_363631570_M3  Bus1=BT2647.3.1 phases=1 conn=Delta Model=3 kV=0.22 kW=0.0535 pf=0.92 Vminpu=0.92 Vmaxpu=1.50 daily=IP_1_Dia_util status=variable 
New Load.IP_229_363631682_M2  Bus1=BT2648.3.1 phases=1 conn=Delta Model=2 kV=0.22 kW=0.0535 pf=0.92 Vminpu=0.92 Vmaxpu=1.50 daily=IP_1_Dia_util status=variable 
New Load.IP_229_363631682_M3  Bus1=BT2648.3.1 phases=1 conn=Delta Model=3 kV=0.22 kW=0.0535 pf=0.92 Vminpu=0.92 Vmaxpu=1.50 daily=IP_1_Dia_util status=variable 
New Load.IP_229_363631715_M2  Bus1=BT2376.1.0 phases=1 conn=Wye Model=2 kV=0.127 kW=0.0535 pf=0.92 Vminpu=0.92 Vmaxpu=1.50 daily=IP_1_Dia_util status=variable 
New Load.IP_229_363631715_M3  Bus1=BT2376.1.0 phases=1 conn=Wye Model=3 kV=0.127 kW=0.0535 pf=0.92 Vminpu=0.92 Vmaxpu=1.50 daily=IP_1_Dia_util status=variable 
New Load.IP_229_363631718_M2  Bus1=BT2651.3.1 phases=1 conn=Delta Model=2 kV=0.22 kW=0.0535 pf=0.92 Vminpu=0.92 Vmaxpu=1.50 daily=IP_1_Dia_util status=variable 
New Load.IP_229_363631718_M3  Bus1=BT2651.3.1 phases=1 conn=Delta Model=3 kV=0.22 kW=0.0535 pf=0.92 Vminpu=0.92 Vmaxpu=1.50 daily=IP_1_Dia_util status=variable 
New Load.IP_229_363631783_M2  Bus1=BT2652.3.1 phases=1 conn=Delta Model=2 kV=0.22 kW=0.0535 pf=0.92 Vminpu=0.92 Vmaxpu=1.50 daily=IP_1_Dia_util status=variable 
New Load.IP_229_363631783_M3  Bus1=BT2652.3.1 phases=1 conn=Delta Model=3 kV=0.22 kW=0.0535 pf=0.92 Vminpu=0.92 Vmaxpu=1.50 daily=IP_1_Dia_util status=variable 
New Load.IP_229_363631816_M2  Bus1=BT2653.3.1 phases=1 conn=Delta Model=2 kV=0.22 kW=0.0535 pf=0.92 Vminpu=0.92 Vmaxpu=1.50 daily=IP_1_Dia_util status=variable 
New Load.IP_229_363631816_M3  Bus1=BT2653.3.1 phases=1 conn=Delta Model=3 kV=0.22 kW=0.0535 pf=0.92 Vminpu=0.92 Vmaxpu=1.50 daily=IP_1_Dia_util status=variable 
New Load.IP_229_363631834_M2  Bus1=BT2654.3.1 phases=1 conn=Delta Model=2 kV=0.22 kW=0.048 pf=0.92 Vminpu=0.92 Vmaxpu=1.50 daily=IP_1_Dia_util status=variable 
New Load.IP_229_363631834_M3  Bus1=BT2654.3.1 phases=1 conn=Delta Model=3 kV=0.22 kW=0.048 pf=0.92 Vminpu=0.92 Vmaxpu=1.50 daily=IP_1_Dia_util status=variable 
New Load.IP_229_363631852_M2  Bus1=BT2655.3.1 phases=1 conn=Delta Model=2 kV=0.22 kW=0.0535 pf=0.92 Vminpu=0.92 Vmaxpu=1.50 daily=IP_1_Dia_util status=variable 
New Load.IP_229_363631852_M3  Bus1=BT2655.3.1 phases=1 conn=Delta Model=3 kV=0.22 kW=0.0535 pf=0.92 Vminpu=0.92 Vmaxpu=1.50 daily=IP_1_Dia_util status=variable 
New Load.IP_229_363631900_M2  Bus1=BT2656.3.1 phases=1 conn=Delta Model=2 kV=0.22 kW=0.0535 pf=0.92 Vminpu=0.92 Vmaxpu=1.50 daily=IP_1_Dia_util status=variable 
New Load.IP_229_363631900_M3  Bus1=BT2656.3.1 phases=1 conn=Delta Model=3 kV=0.22 kW=0.0535 pf=0.92 Vminpu=0.92 Vmaxpu=1.50 daily=IP_1_Dia_util status=variable 
New Load.IP_221_363631958_M2  Bus1=BT2662.3.1 phases=1 conn=Delta Model=2 kV=0.22 kW=0.048 pf=0.92 Vminpu=0.92 Vmaxpu=1.50 daily=IP_1_Dia_util status=variable 
New Load.IP_221_363631958_M3  Bus1=BT2662.3.1 phases=1 conn=Delta Model=3 kV=0.22 kW=0.048 pf=0.92 Vminpu=0.92 Vmaxpu=1.50 daily=IP_1_Dia_util status=variable 
New Load.IP_221_363632034_M2  Bus1=BT2661.3.1 phases=1 conn=Delta Model=2 kV=0.22 kW=0.048 pf=0.92 Vminpu=0.92 Vmaxpu=1.50 daily=IP_1_Dia_util status=variable 
New Load.IP_221_363632034_M3  Bus1=BT2661.3.1 phases=1 conn=Delta Model=3 kV=0.22 kW=0.048 pf=0.92 Vminpu=0.92 Vmaxpu=1.50 daily=IP_1_Dia_util status=variable 
New Load.IP_301_363632190_M2  Bus1=BT2665.3.1 phases=1 conn=Delta Model=2 kV=0.22 kW=0.048 pf=0.92 Vminpu=0.92 Vmaxpu=1.50 daily=IP_1_Dia_util status=variable 
New Load.IP_301_363632190_M3  Bus1=BT2665.3.1 phases=1 conn=Delta Model=3 kV=0.22 kW=0.048 pf=0.92 Vminpu=0.92 Vmaxpu=1.50 daily=IP_1_Dia_util status=variable 
New Load.IP_301_363632223_M2  Bus1=BT2667.3.1 phases=1 conn=Delta Model=2 kV=0.22 kW=0.048 pf=0.92 Vminpu=0.92 Vmaxpu=1.50 daily=IP_1_Dia_util status=variable 
New Load.IP_301_363632223_M3  Bus1=BT2667.3.1 phases=1 conn=Delta Model=3 kV=0.22 kW=0.048 pf=0.92 Vminpu=0.92 Vmaxpu=1.50 daily=IP_1_Dia_util status=variable 
New Load.IP_301_363632226_M2  Bus1=BT2448.1.0 phases=1 conn=Wye Model=2 kV=0.127 kW=0.095 pf=0.92 Vminpu=0.92 Vmaxpu=1.50 daily=IP_1_Dia_util status=variable 
New Load.IP_301_363632226_M3  Bus1=BT2448.1.0 phases=1 conn=Wye Model=3 kV=0.127 kW=0.095 pf=0.92 Vminpu=0.92 Vmaxpu=1.50 daily=IP_1_Dia_util status=variable 
New Load.IP_221_363632259_M2  Bus1=BT2368.1.0 phases=1 conn=Wye Model=2 kV=0.127 kW=0.048 pf=0.92 Vminpu=0.92 Vmaxpu=1.50 daily=IP_1_Dia_util status=variable 
New Load.IP_221_363632259_M3  Bus1=BT2368.1.0 phases=1 conn=Wye Model=3 kV=0.127 kW=0.048 pf=0.92 Vminpu=0.92 Vmaxpu=1.50 daily=IP_1_Dia_util status=variable 
New Load.IP_301_363632307_M2  Bus1=BT2668.3.1 phases=1 conn=Delta Model=2 kV=0.22 kW=0.095 pf=0.92 Vminpu=0.92 Vmaxpu=1.50 daily=IP_1_Dia_util status=variable 