New loadshape.MT_1_Dia_Util 24 1.0 mult=( 0.0930 0.0930 0.0800 0.0800 0.0900 0.1420 0.2130 0.6500 0.8280 0.9000 0.8900 0.6300 0.3500 0.6470 0.9850 1.0000 0.9510 0.4050 0.1560 0.1060 0.0950 0.0850 0.0930 0.1280)
New loadshape.MT_1_Sabado 24 1.0 mult=( 0.3540 0.3240 0.2840 0.2800 0.2780 0.4300 0.4860 0.8440 1.0000 0.8810 0.7460 0.5940 0.4540 0.4730 0.4700 0.4760 0.3770 0.1510 0.1520 0.1850 0.1790 0.1950 0.2040 0.2000)
New loadshape.MT_1_Domingo 24 1.0 mult=( 1.0000 0.9920 0.9910 0.8650 0.7990 0.8560 0.8640 0.7730 0.7810 0.8170 0.5700 0.5930 0.5910 0.6180 0.5710 0.5900 0.5750 0.5970 0.7580 0.8230 0.8500 0.8620 0.8250 0.8230)
New loadshape.MT_2_Dia_Util 24 1.0 mult=( 0.6940 0.6740 0.6530 0.6310 0.6200 0.5970 0.6440 0.8160 0.9480 0.9570 1.0000 0.8800 0.8890 0.8990 0.9780 0.9740 0.9230 0.8830 0.8540 0.8070 0.7250 0.6900 0.6420 0.7300)
New loadshape.MT_2_Sabado 24 1.0 mult=( 0.8150 0.7950 0.7610 0.7150 0.7410 0.7160 0.7360 0.8890 0.9470 1.0000 0.9610 0.8240 0.7100 0.7350 0.7440 0.7290 0.6010 0.5540 0.5220 0.4870 0.4500 0.3860 0.3730 0.3670)
New loadshape.MT_2_Domingo 24 1.0 mult=( 0.5900 0.6970 0.7570 0.7610 0.8110 0.7610 0.7570 0.8170 0.7620 0.7450 0.6400 0.6410 0.5810 0.5830 0.5810 0.5810 0.5950 0.6050 0.6190 0.8810 1.0000 0.9550 0.9210 0.9330)
New loadshape.MT_3_Dia_Util 24 1.0 mult=( 0.4490 0.4630 0.4110 0.3890 0.3720 0.4860 0.7610 0.8860 0.9880 0.9820 0.9610 1.0000 0.8150 0.8690 0.9330 0.9150 0.8180 0.6090 0.5170 0.5080 0.4850 0.4780 0.4520 0.4650)
New loadshape.MT_3_Sabado 24 1.0 mult=( 0.8570 0.8560 0.7750 0.7470 0.7560 0.8840 0.9220 0.9480 1.0000 0.9600 0.9470 0.9510 0.7780 0.7950 0.8080 0.7940 0.8220 0.6500 0.6670 0.6870 0.6410 0.6120 0.6850 0.6850)
New loadshape.MT_3_Domingo 24 1.0 mult=( 0.8930 0.8390 0.8100 0.7960 0.7960 0.9260 0.9960 0.9280 1.0000 0.9690 0.8900 0.8330 0.8180 0.8550 0.7970 0.8400 0.8020 0.7760 0.8820 0.8390 0.7830 0.7700 0.7360 0.7490)
New loadshape.MT_4_Dia_Util 24 1.0 mult=( 0.2600 0.2580 0.2680 0.2770 0.2690 0.2930 0.3230 0.5970 0.7570 0.9390 1.0000 0.8290 0.5930 0.8440 0.9610 0.9170 0.8680 0.7030 0.3640 0.3760 0.3540 0.3320 0.2930 0.2750)
New loadshape.MT_4_Sabado 24 1.0 mult=( 0.3620 0.3390 0.2640 0.2450 0.2960 0.4500 0.4480 0.6390 0.9770 1.0000 0.8180 0.5780 0.3110 0.4890 0.6200 0.6220 0.6040 0.5380 0.2460 0.2770 0.2680 0.2670 0.2550 0.2520)
New loadshape.MT_4_Domingo 24 1.0 mult=( 0.3380 0.3370 0.3370 0.3400 0.3370 0.3440 0.3040 0.3230 0.4760 0.4720 0.4710 0.4760 0.4820 0.5230 0.9360 0.9690 0.9970 1.0000 0.9310 0.8290 0.7920 0.7380 0.7210 0.7120)
New loadshape.MT_5_Dia_Util 24 1.0 mult=( 0.9900 0.9930 0.9930 0.9920 0.9870 0.9860 0.9670 0.9590 0.9810 0.9870 0.9920 0.9910 0.9810 0.9840 0.9890 0.9900 0.9910 0.9860 0.9870 1.0000 0.9980 1.0000 0.9980 0.9970)
New loadshape.MT_5_Sabado 24 1.0 mult=( 0.7170 0.1560 0.6640 0.9940 0.9920 0.6380 0.7070 0.9730 0.9690 0.9730 0.9780 0.9780 0.9820 0.9780 0.9800 0.9800 0.9790 0.9760 0.9820 0.9950 1.0000 0.9970 0.9950 0.9920)
New loadshape.MT_5_Domingo 24 1.0 mult=( 0.9970 0.9040 0.1590 0.7680 0.9980 0.8960 0.2460 0.9770 0.9700 0.5350 0.9820 0.9800 0.9820 0.9820 0.9800 0.9760 0.9760 0.6100 0.5740 1.0000 0.9990 1.0000 0.9990 0.9970)
New loadshape.MT_6_Dia_Util 24 1.0 mult=( 0.4840 0.4950 0.2880 0.2250 0.2160 0.3050 0.3350 0.5830 0.7830 0.6450 0.8340 0.7370 0.3870 0.7360 0.9610 1.0000 0.9680 0.6630 0.6000 0.8190 0.8160 0.7650 0.4940 0.5650)
New loadshape.MT_6_Sabado 24 1.0 mult=( 1.0000 0.7960 0.1990 0.1470 0.1570 0.3940 0.5080 0.4940 0.5410 0.5440 0.4430 0.1620 0.0860 0.0810 0.0830 0.0810 0.0770 0.0840 0.0910 0.1410 0.1520 0.1360 0.1300 0.1260)
New loadshape.MT_6_Domingo 24 1.0 mult=( 0.9400 0.9200 0.9240 0.9270 0.9130 0.9240 0.8040 0.6100 0.6540 0.6550 0.6130 0.6450 0.6160 0.6770 0.6680 0.6090 0.5810 0.5780 0.6960 0.9930 0.9850 0.9980 1.0000 0.9830)
New loadshape.MT_7_Dia_Util 24 1.0 mult=( 0.4510 0.4510 0.4620 0.4640 0.4710 0.5110 0.5490 0.7820 1.0000 0.9970 0.9430 0.8190 0.6250 0.7310 0.8250 0.8940 0.9280 0.6830 0.0240 0.0130 0.0130 0.4010 0.4270 0.4120)
New loadshape.MT_7_Sabado 24 1.0 mult=( 0.5280 0.5340 0.5150 0.5340 0.5090 0.5310 0.6200 1.0000 0.9390 0.8320 0.6850 0.3090 0.2080 0.1230 0.0780 0.1610 0.2510 0.2860 0.2640 0.3210 0.2930 0.3000 0.2730 0.2760)
New loadshape.MT_7_Domingo 24 1.0 mult=( 0.7970 0.8500 0.7850 0.7090 0.7380 0.7100 0.6840 0.7360 0.7350 0.5120 0.4860 0.6000 0.5290 0.5670 0.6580 0.6490 0.7560 0.7210 0.8950 0.8790 0.8890 0.8490 1.0000 0.9140)
New loadshape.MT_8_Dia_Util 24 1.0 mult=( 0.5510 0.3980 0.3620 0.3450 0.3350 0.7170 0.8740 1.0000 0.8720 0.5420 0.5750 0.5750 0.5550 0.6790 0.7880 0.7830 0.6350 0.4960 0.0000 0.0010 0.1630 0.8810 0.5170 0.5350)
New loadshape.MT_8_Sabado 24 1.0 mult=( 0.5970 0.4300 0.3690 0.3650 0.3040 0.6180 0.7730 0.9670 0.8460 0.7460 0.7250 0.5690 0.5250 0.8610 0.9810 0.7610 0.4850 0.4600 0.4760 0.8050 0.7860 1.0000 0.6910 0.7030)
New loadshape.MT_8_Domingo 24 1.0 mult=( 0.6180 0.4390 0.3920 0.3980 0.4110 0.7230 0.9450 0.9940 0.7590 0.7810 0.8190 0.7590 0.5330 0.8570 0.9020 0.7880 0.6870 0.5070 0.4200 0.8720 0.8770 1.0000 0.6700 0.6240)
New loadshape.MT_9_Dia_Util 24 1.0 mult=( 1.0000 0.8950 0.5940 0.8570 0.8490 0.8730 0.9810 0.8290 0.3480 0.2650 0.3080 0.2880 0.2880 0.2410 0.1010 0.0960 0.1180 0.1150 0.1100 0.3630 0.3970 0.5760 0.9600 0.9260)
New loadshape.MT_9_Sabado 24 1.0 mult=( 1.0000 0.8120 0.3710 0.3600 0.3600 0.3460 0.2670 0.1520 0.1570 0.2150 0.2150 0.1620 0.1480 0.1410 0.1580 0.1690 0.1540 0.1680 0.3080 0.4070 0.4030 0.3900 0.3830 0.3860)
New loadshape.MT_9_Domingo 24 1.0 mult=( 0.3180 0.3100 0.3090 0.3070 0.3090 0.2980 0.2510 0.1580 0.1200 0.1510 0.1790 0.1610 0.1480 0.1510 0.1750 0.1440 0.1330 0.1420 0.2430 0.5750 0.9490 1.0000 0.9210 0.7830)
New loadshape.MT_10_Dia_Util 24 1.0 mult=( 0.0110 0.0110 0.0110 0.0110 0.0110 0.0110 0.0100 0.0110 0.0190 0.0220 0.4150 0.5150 0.5300 0.7030 1.0000 0.9940 0.9860 0.7270 0.0310 0.0170 0.0110 0.0110 0.0110 0.0110)
New loadshape.MT_10_Sabado 24 1.0 mult=( 0.8200 0.8140 0.8590 0.8500 0.8140 0.8320 0.7870 0.8050 0.8140 1.0000 0.9880 1.0000 0.8680 0.8500 0.8410 0.8200 0.8500 0.8110 0.8110 0.8140 0.8650 0.8290 0.8080 0.8500)
New loadshape.MT_10_Domingo 24 1.0 mult=( 0.9250 0.9250 0.9320 1.0000 0.9320 0.9250 0.9150 0.9390 0.9150 0.9210 0.9280 0.9520 0.9250 0.9280 0.9590 0.9180 0.9450 0.9180 0.9590 0.9210 0.9180 0.9590 0.9350 0.9250)
New loadshape.MT_11_Dia_Util 24 1.0 mult=( 0.3220 0.3150 0.3110 0.3090 0.3060 0.2950 0.2310 0.2800 0.3220 0.3470 0.3300 0.3470 0.2700 0.3270 0.3800 0.5230 0.4590 0.4820 1.0000 0.9180 0.7840 0.7090 0.5170 0.3730)
New loadshape.MT_11_Sabado 24 1.0 mult=( 0.9990 1.0000 0.9940 0.9690 0.9660 0.9560 0.7960 0.7000 0.3710 0.4240 0.3870 0.4300 0.3570 0.5340 0.6280 0.5340 0.4680 0.3710 0.4520 0.6750 0.6760 0.6660 0.6660 0.6580)
New loadshape.MT_11_Domingo 24 1.0 mult=( 0.9010 0.8990 0.8760 0.8750 0.8820 0.9100 0.6930 0.5390 0.4110 0.4380 0.4370 0.4330 0.3830 0.3940 0.3530 0.3560 0.3390 0.3640 0.7370 0.9990 0.9820 1.0000 0.9850 0.9550)
New loadshape.AT_MT_1_Dia_Util 24 1.0 mult=( 0.3360 0.3090 0.2950 0.2670 0.2600 0.2880 0.4160 0.4620 0.4830 0.5000 0.5310 0.6130 0.6080 0.5250 0.5160 0.5370 0.5720 0.6930 1.0000 0.9160 0.9230 0.8180 0.6130 0.4520)
New loadshape.AT_MT_1_Sabado 24 1.0 mult=( 0.3360 0.3090 0.2950 0.2670 0.2600 0.2880 0.4160 0.4620 0.4830 0.5000 0.5310 0.6130 0.6080 0.5250 0.5160 0.5370 0.5720 0.6930 1.0000 0.9160 0.9230 0.8180 0.6130 0.4520)
New loadshape.AT_MT_1_Domingo 24 1.0 mult=( 0.3360 0.3090 0.2950 0.2670 0.2600 0.2880 0.4160 0.4620 0.4830 0.5000 0.5310 0.6130 0.6080 0.5250 0.5160 0.5370 0.5720 0.6930 1.0000 0.9160 0.9230 0.8180 0.6130 0.4520)
New loadshape.AT_MT_2_Dia_Util 24 1.0 mult=( 0.0000 0.0000 0.0000 0.0000 0.0000 0.0000 0.0000 0.0000 0.0000 0.0000 0.0000 0.0000 0.0000 0.0000 0.0000 0.0000 0.0000 0.0000 0.0000 0.0000 0.0000 0.0000 0.0000 0.0000)
New loadshape.AT_MT_2_Sabado 24 1.0 mult=( 0.0000 0.0000 0.0000 0.0000 0.0000 0.0000 0.0000 0.0000 0.0000 0.0000 0.0000 0.0000 0.0000 0.0000 0.0000 0.0000 0.0000 0.0000 0.0000 0.0000 0.0000 0.0000 0.0000 0.0000)
New loadshape.AT_MT_2_Domingo 24 1.0 mult=( 0.0000 0.0000 0.0000 0.0000 0.0000 0.0000 0.0000 0.0000 0.0000 0.0000 0.0000 0.0000 0.0000 0.0000 0.0000 0.0000 0.0000 0.0000 0.0000 0.0000 0.0000 0.0000 0.0000 0.0000)
New loadshape.AT_MT_3_Dia_Util 24 1.0 mult=( 0.3680 0.2930 0.2760 0.2760 0.2590 0.3080 0.5280 0.8120 0.9740 0.9890 1.0000 0.8710 0.7890 0.9630 0.9900 0.9200 0.8080 0.6070 0.5180 0.5260 0.4730 0.4510 0.4590 0.4270)
New loadshape.AT_MT_3_Sabado 24 1.0 mult=( 0.3680 0.2930 0.2760 0.2760 0.2590 0.3080 0.5280 0.8120 0.9740 0.9890 1.0000 0.8710 0.7890 0.9630 0.9900 0.9200 0.8080 0.6070 0.5180 0.5260 0.4730 0.4510 0.4590 0.4270)
New loadshape.AT_MT_3_Domingo 24 1.0 mult=( 0.3680 0.2930 0.2760 0.2760 0.2590 0.3080 0.5280 0.8120 0.9740 0.9890 1.0000 0.8710 0.7890 0.9630 0.9900 0.9200 0.8080 0.6070 0.5180 0.5260 0.4730 0.4510 0.4590 0.4270)
New loadshape.AT_MT_4_Dia_Util 24 1.0 mult=( 0.3530 0.3120 0.3040 0.3180 0.2880 0.3230 0.4910 0.6360 0.7050 0.7310 0.7620 0.8000 0.7690 0.7580 0.7560 0.7540 0.7480 0.7720 1.0000 0.9370 0.9060 0.7930 0.6060 0.4680)
New loadshape.AT_MT_4_Sabado 24 1.0 mult=( 0.3530 0.3120 0.3040 0.3180 0.2880 0.3230 0.4910 0.6360 0.7050 0.7310 0.7620 0.8000 0.7690 0.7580 0.7560 0.7540 0.7480 0.7720 1.0000 0.9370 0.9060 0.7930 0.6060 0.4680)
New loadshape.AT_MT_4_Domingo 24 1.0 mult=( 0.3530 0.3120 0.3040 0.3180 0.2880 0.3230 0.4910 0.6360 0.7050 0.7310 0.7620 0.8000 0.7690 0.7580 0.7560 0.7540 0.7480 0.7720 1.0000 0.9370 0.9060 0.7930 0.6060 0.4680)
New loadshape.AT_MT_5_Dia_Util 24 1.0 mult=( 0.4900 0.4360 0.4190 0.4460 0.4060 0.4720 0.7010 0.8650 0.9420 0.9620 0.9970 0.9730 0.9240 1.0000 0.9930 0.9530 0.9090 0.8030 0.9780 0.9190 0.8920 0.8210 0.7640 0.6280)
New loadshape.AT_MT_5_Sabado 24 1.0 mult=( 0.4900 0.4360 0.4190 0.4460 0.4060 0.4720 0.7010 0.8650 0.9420 0.9620 0.9970 0.9730 0.9240 1.0000 0.9930 0.9530 0.9090 0.8030 0.9780 0.9190 0.8920 0.8210 0.7640 0.6280)
New loadshape.AT_MT_5_Domingo 24 1.0 mult=( 0.4900 0.4360 0.4190 0.4460 0.4060 0.4720 0.7010 0.8650 0.9420 0.9620 0.9970 0.9730 0.9240 1.0000 0.9930 0.9530 0.9090 0.8030 0.9780 0.9190 0.8920 0.8210 0.7640 0.6280)
New loadshape.AT_MT_6_Dia_Util 24 1.0 mult=( 0.4160 0.2890 0.2630 0.2660 0.2540 0.3430 0.7120 0.8820 0.9370 0.9630 0.9650 0.8770 0.9480 0.9770 0.9590 0.8650 0.7550 0.7680 1.0000 0.9730 0.9310 0.8430 0.6480 0.5050)
New loadshape.AT_MT_6_Sabado 24 1.0 mult=( 0.4160 0.2890 0.2630 0.2660 0.2540 0.3430 0.7120 0.8820 0.9370 0.9630 0.9650 0.8770 0.9480 0.9770 0.9590 0.8650 0.7550 0.7680 1.0000 0.9730 0.9310 0.8430 0.6480 0.5050)
New loadshape.AT_MT_6_Domingo 24 1.0 mult=( 0.4160 0.2890 0.2630 0.2660 0.2540 0.3430 0.7120 0.8820 0.9370 0.9630 0.9650 0.8770 0.9480 0.9770 0.9590 0.8650 0.7550 0.7680 1.0000 0.9730 0.9310 0.8430 0.6480 0.5050)
New loadshape.AT_MT_7_Dia_Util 24 1.0 mult=( 0.3130 0.1560 0.1360 0.1330 0.1470 0.2420 0.6560 0.8780 0.9760 1.0000 0.9680 0.7130 0.8130 0.9580 0.9620 0.7960 0.5880 0.4530 0.3340 0.3960 0.3300 0.3810 0.3530 0.3220)
New loadshape.AT_MT_7_Sabado 24 1.0 mult=( 0.3130 0.1560 0.1360 0.1330 0.1470 0.2420 0.6560 0.8780 0.9760 1.0000 0.9680 0.7130 0.8130 0.9580 0.9620 0.7960 0.5880 0.4530 0.3340 0.3960 0.3300 0.3810 0.3530 0.3220)
New loadshape.AT_MT_7_Domingo 24 1.0 mult=( 0.3130 0.1560 0.1360 0.1330 0.1470 0.2420 0.6560 0.8780 0.9760 1.0000 0.9680 0.7130 0.8130 0.9580 0.9620 0.7960 0.5880 0.4530 0.3340 0.3960 0.3300 0.3810 0.3530 0.3220)
New loadshape.AT_MT_8_Dia_Util 24 1.0 mult=( 0.3470 0.3160 0.3100 0.3200 0.2870 0.3100 0.4530 0.5550 0.5980 0.6310 0.6690 0.7190 0.7090 0.6590 0.6460 0.6560 0.6670 0.7600 1.0000 0.9360 0.8900 0.7700 0.5820 0.4540)
New loadshape.AT_MT_8_Sabado 24 1.0 mult=( 0.3470  1.2E-0310  1.2E-0310  1.2E-0310  1.2E-0310  1.2E-0310  1.2E-0310  1.2E-0310  1.2E-0310  1.2E-0310 0.6690 0.7190 0.7090 0.6590 0.6460 0.6560 0.6670 0.7600 1.0000 0.9360 0.8900 0.7700 0.5820 0.4540)
New loadshape.AT_MT_8_Domingo 24 1.0 mult=( 0.3470 0.3160 0.3100 0.3200 0.2870 0.3100 0.4530 0.5550 0.5980 0.6310 0.6690 0.7190 0.7090 0.6590 0.6460 0.6560 0.6670 0.7600 1.0000 0.9360 0.8900 0.7700 0.5820 0.4540)
