New Line.1_344_BTUB  Phases=3  Bus1=BT2148.1.2.3.0  Bus2=BT2902.1.2.3.0   LineCode=254892548904010703_3  Length=0.03918  Units=km
New Line.1_346_BTUB  Phases=3  Bus1=BT2148.1.2.3.0  Bus2=BT2906.1.2.3.0   LineCode=254892548904010703_3  Length=0.0429  Units=km
New Line.2_322_BTUB  Phases=3  Bus1=BT2149.1.2.3.0  Bus2=BT2879.1.2.3.0   LineCode=254872548704010703_3  Length=0.03517  Units=km
New Line.2_321_BTUB  Phases=3  Bus1=BT2149.1.2.3.0  Bus2=BT2878.1.2.3.0   LineCode=254872548704010703_3  Length=0.02872  Units=km
New Line.3_240_BTUB  Phases=3  Bus1=BT2150.1.2.3.0  Bus2=BT2788.1.2.3.0   LineCode=254892548904010703_3  Length=0.03097  Units=km
New Line.3_242_BTUB  Phases=3  Bus1=BT2150.1.2.3.0  Bus2=BT2791.1.2.3.0   LineCode=254892548904010703_3  Length=0.03293  Units=km
New Line.4_436_BTUB  Phases=3  Bus1=BT2151.1.2.3.0  Bus2=BT3006.1.2.3.0   LineCode=254892548904010703_3  Length=0.03097  Units=km
New Line.4_433_BTUB  Phases=3  Bus1=BT2151.1.2.3.0  Bus2=BT3002.1.2.3.0   LineCode=254892548904010703_3  Length=0.02774  Units=km
New Line.5_528_BTUB  Phases=3  Bus1=BT2152.1.2.3.0  Bus2=BT3098.1.2.3.0   LineCode=254892548904010703_3  Length=0.02452  Units=km
New Line.5_523_BTUB  Phases=3  Bus1=BT2152.1.2.3.0  Bus2=BT3100.1.2.3.0   LineCode=254892548904010703_3  Length=0.02774  Units=km
New Line.6_318_BTUB  Phases=3  Bus1=BT2153.1.2.3.0  Bus2=BT2875.1.2.3.0   LineCode=254892548904010703_3  Length=0.03293  Units=km
New Line.6_319_BTUB  Phases=3  Bus1=BT2153.1.2.3.0  Bus2=BT2876.1.2.3.0   LineCode=254892548904010703_3  Length=0.02581  Units=km
New Line.7_551_BTUB  Phases=3  Bus1=BT2154.1.2.3.0  Bus2=BT3132.1.2.3.0   LineCode=254892548904010703_3  Length=0.03774  Units=km
New Line.7_552_BTUB  Phases=3  Bus1=BT2154.1.2.3.0  Bus2=BT3133.1.2.3.0   LineCode=254892548904010703_3  Length=0.03195  Units=km
New Line.9_746_BTUB  Phases=3  Bus1=BT2156.1.2.3.0  Bus2=BT3337.1.2.3.0   LineCode=254892548904010703_3  Length=0.0297  Units=km
New Line.9_747_BTUB  Phases=3  Bus1=BT2156.1.2.3.0  Bus2=BT3339.1.2.3.0   LineCode=254892548904010703_3  Length=0.02774  Units=km
New Line.10_488_BTUB  Phases=3  Bus1=BT2157.1.2.3.0  Bus2=BT3045.1.2.3.0   LineCode=254892548904010703_3  Length=0.0129  Units=km
New Line.10_475_BTUB  Phases=3  Bus1=BT2157.1.2.3.0  Bus2=BT3050.1.2.3.0   LineCode=254892548904010703_3  Length=0.03322  Units=km
New Line.11_566_BTUB  Phases=3  Bus1=BT2158.1.2.3.0  Bus2=BT3143.1.2.3.0   LineCode=254882548804010703_3  Length=0.03293  Units=km
New Line.11_568_BTUB  Phases=3  Bus1=BT2158.1.2.3.0  Bus2=BT3149.1.2.3.0   LineCode=254882548804010703_3  Length=0.03225  Units=km
New Line.12_369_BTUB  Phases=3  Bus1=BT2159.1.2.3.0  Bus2=BT2933.1.2.3.0   LineCode=254892548904010703_3  Length=0.03195  Units=km
New Line.13_97_BTUB  Phases=3  Bus1=BT2160.1.2.3.0  Bus2=BT2639.1.2.3.0   LineCode=254892548904010703_3  Length=0.02452  Units=km
New Line.13_95_BTUB  Phases=3  Bus1=BT2160.1.2.3.0  Bus2=BT2638.1.2.3.0   LineCode=254892548904010703_3  Length=0.02903  Units=km
New Line.14_333_BTUB  Phases=3  Bus1=BT2161.1.2.3.0  Bus2=BT2892.1.2.3.0   LineCode=254892548904010703_3  Length=0.02677  Units=km
New Line.14_331_BTUB  Phases=3  Bus1=BT2161.1.2.3.0  Bus2=BT2887.1.2.3.0   LineCode=254892548904010703_3  Length=0.03195  Units=km
New Line.15_974_BTUB  Phases=3  Bus1=BT2162.1.2.3.0  Bus2=BT3570.1.2.3.0   LineCode=254892548904010703_3  Length=0.02452  Units=km
New Line.15_978_BTUB  Phases=3  Bus1=BT2162.1.2.3.0  Bus2=BT3568.1.2.3.0   LineCode=254892548904010703_3  Length=0.01193  Units=km
New Line.18_1207_BTUB  Phases=3  Bus1=BT2165.1.2.3.0  Bus2=BT3183.1.2.3.0   LineCode=254892548904010703_3  Length=0.01485  Units=km
New Line.18_600_BTUB  Phases=3  Bus1=BT2165.1.2.3.0  Bus2=BT3181.1.2.3.0   LineCode=254892548904010703_3  Length=0.03607  Units=km
New Line.19_557_BTUB  Phases=3  Bus1=BT2166.1.2.3.0  Bus2=BT3138.1.2.3.0   LineCode=254872548704010703_3  Length=0.01065  Units=km
New Line.19_556_BTUB  Phases=3  Bus1=BT2166.1.2.3.0  Bus2=BT3137.1.2.3.0   LineCode=254872548704010703_3  Length=0.03322  Units=km
New Line.20_1054_BTUB  Phases=3  Bus1=BT2167.1.2.3.0  Bus2=BT3654.1.2.3.0   LineCode=254872548704010703_3  Length=0.01905  Units=km
New Line.20_1053_BTUB  Phases=3  Bus1=BT2167.1.2.3.0  Bus2=BT3653.1.2.3.0   LineCode=254872548704010703_3  Length=0.01781  Units=km
New Line.22_689_BTUB  Phases=3  Bus1=BT2169.1.2.3.0  Bus2=BT3278.1.2.3.0   LineCode=254892548904010703_3  Length=0.03884  Units=km
New Line.22_688_BTUB  Phases=3  Bus1=BT2169.1.2.3.0  Bus2=BT3277.1.2.3.0   LineCode=254892548904010703_3  Length=0.03686  Units=km
New Line.23_1039_BTUB  Phases=3  Bus1=BT2170.1.2.3.0  Bus2=BT3638.1.2.3.0   LineCode=254872548704010703_3  Length=0.02519  Units=km
New Line.23_1040_BTUB  Phases=3  Bus1=BT2170.1.2.3.0  Bus2=BT3639.1.2.3.0   LineCode=254872548704010703_3  Length=0.021  Units=km
New Line.48_902_BTNU  Phases=2  Bus1=BT2195.1.2.0  Bus2=BT3497.1.2.0   LineCode=254862548603010703_2  Length=0.11713  Units=km
New Line.49_784_BTNU  Phases=2  Bus1=BT2196.1.2.0  Bus2=BT3376.1.2.0   LineCode=254862548603010703_2  Length=0.05976  Units=km
New Line.52_1011_BTNU  Phases=3  Bus1=BT2199.1.2.3.0  Bus2=BT3610.1.2.3.0   LineCode=254862548603010703_3  Length=0.12344  Units=km
New Line.52_1010_BTNU  Phases=3  Bus1=BT2199.1.2.3.0  Bus2=BT3609.1.2.3.0   LineCode=254862548603010703_3  Length=0.1221  Units=km
New Line.53_1009_BTNU  Phases=3  Bus1=BT2200.1.2.3.0  Bus2=BT3608.1.2.3.0   LineCode=254862548603010703_3  Length=0.07768  Units=km
New Line.56_1006_BTNU  Phases=2  Bus1=BT2203.1.2.0  Bus2=BT3604.1.2.0   LineCode=254862548603010703_2  Length=0.08078  Units=km
New Line.56_1005_BTNU  Phases=2  Bus1=BT2203.1.2.0  Bus2=BT3603.1.2.0   LineCode=254862548602010703_2  Length=0.08488  Units=km
New Line.58_1055_BTNU  Phases=2  Bus1=BT2205.1.2.0  Bus2=BT3655.1.2.0   LineCode=254862548603010703_2  Length=0.11135  Units=km
New Line.58_1056_BTNU  Phases=2  Bus1=BT2205.1.2.0  Bus2=BT3656.1.2.0   LineCode=254862548603010703_2  Length=0.15905  Units=km
New Line.63_901_BTNU  Phases=2  Bus1=BT2210.1.2.0  Bus2=BT3496.1.2.0   LineCode=254862548603010703_2  Length=0.11231  Units=km
New Line.64_1008_BTNU  Phases=2  Bus1=BT2211.1.2.0  Bus2=BT3607.1.2.0   LineCode=254862548603010703_2  Length=0.09464  Units=km
New Line.66_900_BTNU  Phases=2  Bus1=BT2213.1.2.0  Bus2=BT3495.1.2.0   LineCode=254862548603010703_2  Length=0.10342  Units=km
New Line.66_899_BTNU  Phases=2  Bus1=BT2213.1.2.0  Bus2=BT3494.1.2.0   LineCode=254862548602010703_2  Length=0.11039  Units=km
New Line.69_903_BTNU  Phases=2  Bus1=BT2216.1.2.0  Bus2=BT3498.1.2.0   LineCode=254862548603010703_2  Length=0.12199  Units=km
New Line.70_1051_BTNU  Phases=2  Bus1=BT2217.1.2.0  Bus2=BT3650.1.2.0   LineCode=254862548603010703_2  Length=0.12753  Units=km
New Line.75_905_BTNU  Phases=2  Bus1=BT2222.1.2.0  Bus2=BT3500.1.2.0   LineCode=254862548602010703_2  Length=0.07243  Units=km
New Line.76_904_BTNU  Phases=2  Bus1=BT2223.1.2.0  Bus2=BT3499.1.2.0   LineCode=254862548603010703_2  Length=0.10554  Units=km
New Line.77_979_BTNU  Phases=2  Bus1=BT2224.1.2.0  Bus2=BT3575.1.2.0   LineCode=254862548603010703_2  Length=0.10464  Units=km
New Line.85_906_BTNU  Phases=2  Bus1=BT2232.1.2.0  Bus2=BT3501.1.2.0   LineCode=254862548603010703_2  Length=0.12125  Units=km
New Line.89_783_BTNU  Phases=2  Bus1=BT2236.1.2.0  Bus2=BT3375.1.2.0   LineCode=271342713403010403_2  Length=0.04596  Units=km
New Line.134_10_BTNU  Phases=2  Bus1=BT2281.1.2.0  Bus2=BT2547.1.2.0   LineCode=254862548603010703_2  Length=0.03143  Units=km
New Line.134_9_BTNU  Phases=2  Bus1=BT2281.1.2.0  Bus2=BT2545.1.2.0   LineCode=254862548603010703_2  Length=0.07161  Units=km
New Line.135_5_BTNU  Phases=2  Bus1=BT2282.1.2.0  Bus2=BT2542.1.2.0   LineCode=254862548602010703_2  Length=0.04769  Units=km
New Line.135_4_BTNU  Phases=2  Bus1=BT2282.1.2.0  Bus2=BT2541.1.2.0   LineCode=254862548603010703_2  Length=0.0663  Units=km
New Line.136_3_BTNU  Phases=2  Bus1=BT2283.1.2.0  Bus2=BT2540.1.2.0   LineCode=254862548603010703_2  Length=0.08323  Units=km
New Line.136_2_BTNU  Phases=2  Bus1=BT2283.1.2.0  Bus2=BT2538.1.2.0   LineCode=254862548603010703_2  Length=0.07956  Units=km
New Line.137_12_BTNU  Phases=2  Bus1=BT2284.1.2.0  Bus2=BT2548.1.2.0   LineCode=254862548603010703_2  Length=0.08006  Units=km
New Line.137_13_BTNU  Phases=2  Bus1=BT2284.1.2.0  Bus2=BT2550.1.2.0   LineCode=254862548603010703_2  Length=0.09312  Units=km
New Line.138_7_BTNU  Phases=2  Bus1=BT2285.1.2.0  Bus2=BT2544.1.2.0   LineCode=254862548603010703_2  Length=0.08317  Units=km
New Line.138_6_BTNU  Phases=2  Bus1=BT2285.1.2.0  Bus2=BT2543.1.2.0   LineCode=254862548603010703_2  Length=0.12436  Units=km
New Line.167_1231_BTNU  Phases=2  Bus1=BT2314.1.2.0  Bus2=BT3788.1.2.0   LineCode=254962549603010703_2  Length=0.12867  Units=km
New Line.196_860_BTUB  Phases=3  Bus1=BT2343.1.2.3.0  Bus2=BT3454.1.2.3.0   LineCode=254872548704010703_3  Length=0.03474  Units=km
New Line.196_861_BTUB  Phases=3  Bus1=BT2343.1.2.3.0  Bus2=BT3455.1.2.3.0   LineCode=254872548704010703_3  Length=0.03622  Units=km
New Line.197_956_BTUB  Phases=3  Bus1=BT2344.1.2.3.0  Bus2=BT3552.1.2.3.0   LineCode=254872548704010703_3  Length=0.04112  Units=km
New Line.197_957_BTUB  Phases=3  Bus1=BT2344.1.2.3.0  Bus2=BT3553.1.2.3.0   LineCode=254872548704010703_3  Length=0.03796  Units=km
New Line.199_170_BTUB  Phases=3  Bus1=BT2346.1.2.3.0  Bus2=BT2717.1.2.3.0   LineCode=254872548704010703_3  Length=0.03062  Units=km
New Line.199_176_BTUB  Phases=3  Bus1=BT2346.1.2.3.0  Bus2=BT2723.1.2.3.0   LineCode=254872548704010703_3  Length=0.0114  Units=km
New Line.201_608_BTUB  Phases=3  Bus1=BT2348.1.2.3.0  Bus2=BT3192.1.2.3.0   LineCode=254892548904010703_3  Length=0.03517  Units=km
New Line.201_609_BTUB  Phases=3  Bus1=BT2348.1.2.3.0  Bus2=BT3194.1.2.3.0   LineCode=254892548904010703_3  Length=0.03421  Units=km
New Line.202_648_BTUB  Phases=3  Bus1=BT2349.1.2.3.0  Bus2=BT3236.1.2.3.0   LineCode=254892548904010703_3  Length=0.02693  Units=km
New Line.202_659_BTUB  Phases=3  Bus1=BT2349.1.2.3.0  Bus2=BT3249.1.2.3.0   LineCode=254892548904010703_3  Length=0.0249  Units=km
New Line.203_43_BTUB  Phases=3  Bus1=BT2350.1.2.3.0  Bus2=BT2582.1.2.3.0   LineCode=254902549004010703_3  Length=0.03318  Units=km
New Line.203_39_BTUB  Phases=3  Bus1=BT2350.1.2.3.0  Bus2=BT2576.1.2.3.0   LineCode=254902549004010703_3  Length=0.03391  Units=km
New Line.204_1021_BTUB  Phases=3  Bus1=BT2351.1.2.3.0  Bus2=BT3621.1.2.3.0   LineCode=254892548904010703_3  Length=0.02452  Units=km
New Line.204_1024_BTUB  Phases=3  Bus1=BT2351.1.2.3.0  Bus2=BT3623.1.2.3.0   LineCode=254892548904010703_3  Length=0.03662  Units=km
New Line.205_889_BTUB  Phases=3  Bus1=BT2352.1.2.3.0  Bus2=BT3484.1.2.3.0   LineCode=254892548904010703_3  Length=0.03  Units=km
New Line.205_886_BTUB  Phases=3  Bus1=BT2352.1.2.3.0  Bus2=BT3481.1.2.3.0   LineCode=254892548904010703_3  Length=0.03645  Units=km
New Line.206_383_BTUB  Phases=3  Bus1=BT2353.1.2.3.0  Bus2=BT2947.1.2.3.0   LineCode=254902549004010703_3  Length=0.03894  Units=km
New Line.206_384_BTUB  Phases=3  Bus1=BT2353.1.2.3.0  Bus2=BT2948.1.2.3.0   LineCode=254902549004010703_3  Length=0.02525  Units=km
New Line.208_1036_BTUB  Phases=3  Bus1=BT2355.1.2.3.0  Bus2=BT3636.1.2.3.0   LineCode=254892548904010703_3  Length=0.03535  Units=km
New Line.208_1037_BTUB  Phases=3  Bus1=BT2355.1.2.3.0  Bus2=BT3637.1.2.3.0   LineCode=254892548904010703_3  Length=0.03968  Units=km
New Line.209_179_BTUB  Phases=3  Bus1=BT2356.1.2.3.0  Bus2=BT2728.1.2.3.0   LineCode=254892548904010703_3  Length=0.02965  Units=km
New Line.209_189_BTUB  Phases=3  Bus1=BT2356.1.2.3.0  Bus2=BT2737.1.2.3.0   LineCode=254892548904010703_3  Length=0.02355  Units=km
New Line.210_823_BTUB  Phases=3  Bus1=BT2357.1.2.3.0  Bus2=BT3421.1.2.3.0   LineCode=254892548904010703_3  Length=0.01543  Units=km
New Line.210_807_BTUB  Phases=3  Bus1=BT2357.1.2.3.0  Bus2=BT3402.1.2.3.0   LineCode=254892548904010703_3  Length=0.02756  Units=km
New Line.211_912_BTUB  Phases=3  Bus1=BT2358.1.2.3.0  Bus2=BT3508.1.2.3.0   LineCode=254892548904010703_3  Length=0.03062  Units=km
New Line.211_911_BTUB  Phases=3  Bus1=BT2358.1.2.3.0  Bus2=BT3507.1.2.3.0   LineCode=254892548904010703_3  Length=0.03067  Units=km
New Line.212_1063_BTUB  Phases=3  Bus1=BT2359.1.2.3.0  Bus2=BT3663.1.2.3.0   LineCode=254872548704010703_3  Length=0.03839  Units=km
New Line.212_1064_BTUB  Phases=3  Bus1=BT2359.1.2.3.0  Bus2=BT3664.1.2.3.0   LineCode=254872548704010703_3  Length=0.03535  Units=km
New Line.213_759_BTUB  Phases=3  Bus1=BT2360.1.2.3.0  Bus2=BT3351.1.2.3.0   LineCode=254892548904010703_3  Length=0.03266  Units=km
New Line.213_758_BTUB  Phases=3  Bus1=BT2360.1.2.3.0  Bus2=BT3350.1.2.3.0   LineCode=254892548904010703_3  Length=0.03186  Units=km
New Line.214_1076_BTUB  Phases=3  Bus1=BT2361.1.2.3.0  Bus2=BT3677.1.2.3.0   LineCode=254872548704010703_3  Length=0.02601  Units=km
New Line.214_1066_BTUB  Phases=3  Bus1=BT2361.1.2.3.0  Bus2=BT3665.1.2.3.0   LineCode=254872548704010703_3  Length=0.00735  Units=km
New Line.216_994_BTUB  Phases=3  Bus1=BT2363.1.2.3.0  Bus2=BT3590.1.2.3.0   LineCode=254872548704010703_3  Length=0.02025  Units=km
New Line.216_993_BTUB  Phases=3  Bus1=BT2363.1.2.3.0  Bus2=BT3589.1.2.3.0   LineCode=254872548704010703_3  Length=0.03897  Units=km
New Line.217_944_BTUB  Phases=3  Bus1=BT2364.1.2.3.0  Bus2=BT3540.1.2.3.0   LineCode=254872548704010703_3  Length=0.02168  Units=km
New Line.217_943_BTUB  Phases=3  Bus1=BT2364.1.2.3.0  Bus2=BT3539.1.2.3.0   LineCode=254872548704010703_3  Length=0.03973  Units=km
New Line.218_983_BTUB  Phases=3  Bus1=BT2365.1.2.3.0  Bus2=BT3579.1.2.3.0   LineCode=254872548704010703_3  Length=0.03829  Units=km
New Line.218_988_BTUB  Phases=3  Bus1=BT2365.1.2.3.0  Bus2=BT3580.1.2.3.0   LineCode=254872548704010703_3  Length=0.02237  Units=km
New Line.219_791_BTUB  Phases=3  Bus1=BT2366.1.2.3.0  Bus2=BT3384.1.2.3.0   LineCode=254872548704010703_3  Length=0.03673  Units=km
New Line.219_790_BTUB  Phases=3  Bus1=BT2366.1.2.3.0  Bus2=BT3383.1.2.3.0   LineCode=254872548704010703_3  Length=0.02552  Units=km
New Line.220_841_BTUB  Phases=3  Bus1=BT2367.1.2.3.0  Bus2=BT3434.1.2.3.0   LineCode=254892548904010703_3  Length=0.03164  Units=km
New Line.220_840_BTUB  Phases=3  Bus1=BT2367.1.2.3.0  Bus2=BT3433.1.2.3.0   LineCode=254892548904010703_3  Length=0.03067  Units=km
New Line.221_124_BTUB  Phases=3  Bus1=BT2368.1.2.3.0  Bus2=BT2669.1.2.3.0   LineCode=254892548904010703_3  Length=0.03293  Units=km
New Line.221_118_BTUB  Phases=3  Bus1=BT2368.1.2.3.0  Bus2=BT2662.1.2.3.0   LineCode=254892548904010703_3  Length=0.04035  Units=km
New Line.222_148_BTUB  Phases=3  Bus1=BT2369.1.2.3.0  Bus2=BT2695.1.2.3.0   LineCode=254892548904010703_3  Length=0.03549  Units=km
New Line.222_147_BTUB  Phases=3  Bus1=BT2369.1.2.3.0  Bus2=BT2691.1.2.3.0   LineCode=254892548904010703_3  Length=0.03549  Units=km
New Line.223_743_BTUB  Phases=3  Bus1=BT2370.1.2.3.0  Bus2=BT3327.1.2.3.0   LineCode=254872548704010703_3  Length=0.03097  Units=km
New Line.223_1186_BTUB  Phases=3  Bus1=BT2370.1.2.3.0  Bus2=BT3320.1.2.3.0   LineCode=254872548704010703_3  Length=0.00743  Units=km
New Line.224_582_BTUB  Phases=3  Bus1=BT2371.1.2.3.0  Bus2=BT3167.1.2.3.0   LineCode=254902549004010703_3  Length=0.02484  Units=km
New Line.224_579_BTUB  Phases=3  Bus1=BT2371.1.2.3.0  Bus2=BT3163.1.2.3.0   LineCode=254902549004010703_3  Length=0.03517  Units=km
New Line.225_1092_BTUB  Phases=3  Bus1=BT2372.1.2.3.0  Bus2=BT3695.1.2.3.0   LineCode=271362713604010403_3  Length=0.03531  Units=km
New Line.225_1091_BTUB  Phases=3  Bus1=BT2372.1.2.3.0  Bus2=BT3694.1.2.3.0   LineCode=271362713604010403_3  Length=0.03852  Units=km
New Line.226_210_BTUB  Phases=3  Bus1=BT2373.1.2.3.0  Bus2=BT2759.1.2.3.0   LineCode=254892548904010703_3  Length=0.03888  Units=km
New Line.226_208_BTUB  Phases=3  Bus1=BT2373.1.2.3.0  Bus2=BT2757.1.2.3.0   LineCode=254892548904010703_3  Length=0.02253  Units=km
New Line.227_403_BTUB  Phases=3  Bus1=BT2374.1.2.3.0  Bus2=BT2965.1.2.3.0   LineCode=254892548904010703_3  Length=0.02348  Units=km
New Line.227_404_BTUB  Phases=3  Bus1=BT2374.1.2.3.0  Bus2=BT2971.1.2.3.0   LineCode=254892548904010703_3  Length=0.02761  Units=km
New Line.228_703_BTUB  Phases=3  Bus1=BT2375.1.2.3.0  Bus2=BT3282.1.2.3.0   LineCode=254902549004010703_3  Length=0.01428  Units=km
New Line.228_702_BTUB  Phases=3  Bus1=BT2375.1.2.3.0  Bus2=BT3286.1.2.3.0   LineCode=254902549004010703_3  Length=0.03469  Units=km
New Line.229_107_BTUB  Phases=3  Bus1=BT2376.1.2.3.0  Bus2=BT2649.1.2.3.0   LineCode=254892548904010703_3  Length=0.01682  Units=km
New Line.229_106_BTUB  Phases=3  Bus1=BT2376.1.2.3.0  Bus2=BT2648.1.2.3.0   LineCode=254892548904010703_3  Length=0.03645  Units=km
New Line.233_512_BTUB  Phases=3  Bus1=BT2380.1.2.3.0  Bus2=BT3087.1.2.3.0   LineCode=254892548904010703_3  Length=0.0213  Units=km
New Line.233_513_BTUB  Phases=3  Bus1=BT2380.1.2.3.0  Bus2=BT3089.1.2.3.0   LineCode=254892548904010703_3  Length=0.02581  Units=km
New Line.234_296_BTUB  Phases=3  Bus1=BT2381.1.2.3.0  Bus2=BT2851.1.2.3.0   LineCode=254892548904010703_3  Length=0.0297  Units=km
New Line.234_295_BTUB  Phases=3  Bus1=BT2381.1.2.3.0  Bus2=BT2850.1.2.3.0   LineCode=254892548904010703_3  Length=0.02258  Units=km
New Line.235_1060_BTUB  Phases=3  Bus1=BT2382.1.2.3.0  Bus2=BT3660.1.2.3.0   LineCode=254872548704010703_3  Length=0.03968  Units=km
New Line.235_1059_BTUB  Phases=3  Bus1=BT2382.1.2.3.0  Bus2=BT3659.1.2.3.0   LineCode=254872548704010703_3  Length=0.02845  Units=km
New Line.236_30_BTUB  Phases=3  Bus1=BT2383.1.2.3.0  Bus2=BT2569.1.2.3.0   LineCode=254902549004010703_3  Length=0.02774  Units=km
New Line.236_31_BTUB  Phases=3  Bus1=BT2383.1.2.3.0  Bus2=BT2570.1.2.3.0   LineCode=254902549004010703_3  Length=0.03489  Units=km
New Line.238_639_BTUB  Phases=3  Bus1=BT2385.1.2.3.0  Bus2=BT3226.1.2.3.0   LineCode=254902549004010703_3  Length=0.02258  Units=km
New Line.238_632_BTUB  Phases=3  Bus1=BT2385.1.2.3.0  Bus2=BT3217.1.2.3.0   LineCode=254902549004010703_3  Length=0.02388  Units=km
New Line.239_85_BTUB  Phases=3  Bus1=BT2386.1.2.3.0  Bus2=BT2626.1.2.3.0   LineCode=254892548904010703_3  Length=0.03517  Units=km
New Line.239_86_BTUB  Phases=3  Bus1=BT2386.1.2.3.0  Bus2=BT2629.1.2.3.0   LineCode=254892548904010703_3  Length=0.03322  Units=km
New Line.241_56_BTUB  Phases=3  Bus1=BT2388.1.2.3.0  Bus2=BT2595.1.2.3.0   LineCode=254892548904010703_3  Length=0.03068  Units=km
New Line.241_55_BTUB  Phases=3  Bus1=BT2388.1.2.3.0  Bus2=BT2594.1.2.3.0   LineCode=254892548904010703_3  Length=0.03355  Units=km
New Line.242_299_BTUB  Phases=3  Bus1=BT2389.1.2.3.0  Bus2=BT2854.1.2.3.0   LineCode=254872548704010703_3  Length=0.02677  Units=km
New Line.242_300_BTUB  Phases=3  Bus1=BT2389.1.2.3.0  Bus2=BT2855.1.2.3.0   LineCode=254872548704010703_3  Length=0.03195  Units=km
New Line.243_970_BTUB  Phases=3  Bus1=BT2390.1.2.3.0  Bus2=BT3565.1.2.3.0   LineCode=254892548904010703_3  Length=0.02774  Units=km
New Line.243_969_BTUB  Phases=3  Bus1=BT2390.1.2.3.0  Bus2=BT3129.1.2.3.0   LineCode=254892548904010703_3  Length=0.02872  Units=km
New Line.244_286_BTUB  Phases=3  Bus1=BT2391.1.2.3.0  Bus2=BT2839.1.2.3.0   LineCode=254902549004010703_3  Length=0.03  Units=km
New Line.244_287_BTUB  Phases=3  Bus1=BT2391.1.2.3.0  Bus2=BT2841.1.2.3.0   LineCode=254902549004010703_3  Length=0.02721  Units=km
New Line.245_536_BTUB  Phases=3  Bus1=BT2392.1.2.3.0  Bus2=BT3115.1.2.3.0   LineCode=254892548904010703_3  Length=0.0342  Units=km
New Line.245_535_BTUB  Phases=3  Bus1=BT2392.1.2.3.0  Bus2=BT3114.1.2.3.0   LineCode=254892548904010703_3  Length=0.0297  Units=km
New Line.246_624_BTUB  Phases=3  Bus1=BT2393.1.2.3.0  Bus2=BT3209.1.2.3.0   LineCode=254872548704010703_3  Length=0.02677  Units=km
New Line.246_623_BTUB  Phases=3  Bus1=BT2393.1.2.3.0  Bus2=BT3208.1.2.3.0   LineCode=254892548904010703_3  Length=0.03  Units=km
New Line.248_1168_BTUB  Phases=3  Bus1=BT2395.1.2.3.0  Bus2=BT2554.1.2.3.0   LineCode=254892548904010703_3  Length=0.00721  Units=km
New Line.248_20_BTUB  Phases=3  Bus1=BT2395.1.2.3.0  Bus2=BT2558.1.2.3.0   LineCode=254892548904010703_3  Length=0.03  Units=km
New Line.251_276_BTUB  Phases=3  Bus1=BT2398.1.2.3.0  Bus2=BT2829.1.2.3.0   LineCode=254892548904010703_3  Length=0.03  Units=km
New Line.251_275_BTUB  Phases=3  Bus1=BT2398.1.2.3.0  Bus2=BT2827.1.2.3.0   LineCode=254892548904010703_3  Length=0.03322  Units=km
New Line.252_257_BTUB  Phases=3  Bus1=BT2399.1.2.3.0  Bus2=BT2808.1.2.3.0   LineCode=254892548904010703_3  Length=0.03  Units=km
New Line.252_260_BTUB  Phases=3  Bus1=BT2399.1.2.3.0  Bus2=BT2812.1.2.3.0   LineCode=254892548904010703_3  Length=0.03  Units=km
New Line.253_460_BTUB  Phases=3  Bus1=BT2400.1.2.3.0  Bus2=BT3032.1.2.3.0   LineCode=254892548904010703_3  Length=0.03517  Units=km
New Line.253_457_BTUB  Phases=3  Bus1=BT2400.1.2.3.0  Bus2=BT3024.1.2.3.0   LineCode=254892548904010703_3  Length=0.03678  Units=km
New Line.254_306_BTUB  Phases=3  Bus1=BT2401.1.2.3.0  Bus2=BT2861.1.2.3.0   LineCode=254892548904010703_3  Length=0.03195  Units=km
New Line.254_307_BTUB  Phases=3  Bus1=BT2401.1.2.3.0  Bus2=BT2863.1.2.3.0   LineCode=254892548904010703_3  Length=0.03129  Units=km
New Line.255_67_BTUB  Phases=3  Bus1=BT2402.1.2.3.0  Bus2=BT2606.1.2.3.0   LineCode=254892548904010703_3  Length=0.02774  Units=km
New Line.255_69_BTUB  Phases=3  Bus1=BT2402.1.2.3.0  Bus2=BT2609.1.2.3.0   LineCode=254892548904010703_3  Length=0.03549  Units=km
New Line.256_875_BTUB  Phases=3  Bus1=BT2403.1.2.3.0  Bus2=BT3470.1.2.3.0   LineCode=254892548904010703_3  Length=0.03969  Units=km
New Line.256_881_BTUB  Phases=3  Bus1=BT2403.1.2.3.0  Bus2=BT3475.1.2.3.0   LineCode=254892548904010703_3  Length=0.03605  Units=km
New Line.134_8_BTNU  Phases=2  Bus1=BT2545.1.2.0  Bus2=BT2546.1.2.0   LineCode=254862548602010703_2  Length=0.07219  Units=km
New Line.136_1_BTNU  Phases=2  Bus1=BT2538.1.2.0  Bus2=BT2539.1.2.0   LineCode=254862548603010703_2  Length=0.05871  Units=km
New Line.137_11_BTNU  Phases=2  Bus1=BT2548.1.2.0  Bus2=BT2549.1.2.0   LineCode=254862548603010703_2  Length=0.06806  Units=km
New Line.1_342_BTUB  Phases=3  Bus1=BT2902.1.2.3.0  Bus2=BT2900.1.2.3.0   LineCode=254892548904010703_3  Length=0.02956  Units=km
New Line.1_1167_BTUB  Phases=3  Bus1=BT2906.1.2.3.0  Bus2=BT2904.1.2.3.0   LineCode=254892548904010703_3  Length=0.0062  Units=km
New Line.1_343_BTUB  Phases=3  Bus1=BT2901.1.2.3.0  Bus2=BT2903.1.2.3.0   LineCode=254872548704010703_3  Length=0.0328  Units=km
New Line.1_350_BTUB  Phases=3  Bus1=BT2907.1.2.3.0  Bus2=BT2910.1.2.3.0   LineCode=254872548704010703_3  Length=0.0342  Units=km
New Line.1_339_BTUB  Phases=3  Bus1=BT2899.1.2.3.0  Bus2=BT2898.1.2.3.0   LineCode=254872548704010703_3  Length=0.03432  Units=km
New Line.1_348_BTUB  Phases=3  Bus1=BT2903.1.2.3.0  Bus2=BT2908.1.2.3.0   LineCode=254872548704010703_3  Length=0.03097  Units=km
New Line.1_351_BTUB  Phases=3  Bus1=BT2909.1.2.3.0  Bus2=BT2911.1.2.3.0   LineCode=254872548704010703_3  Length=0.04387  Units=km
New Line.1_353_BTUB  Phases=3  Bus1=BT2910.1.2.3.0  Bus2=BT2913.1.2.3.0   LineCode=254872548704010703_3  Length=0.03742  Units=km
New Line.1_338_BTUB  Phases=3  Bus1=BT2898.1.2.3.0  Bus2=BT2896.1.2.3.0   LineCode=254872548704010703_3  Length=0.03218  Units=km
New Line.1_352_BTUB  Phases=3  Bus1=BT2911.1.2.3.0  Bus2=BT2912.1.2.3.0   LineCode=254872548704010703_3  Length=0.03  Units=km
New Line.1_354_BTUB  Phases=3  Bus1=BT2913.1.2.3.0  Bus2=BT2914.1.2.3.0   LineCode=271362713604010403_3  Length=0.03082  Units=km
New Line.1_337_BTUB  Phases=3  Bus1=BT2896.1.2.3.0  Bus2=BT2897.1.2.3.0   LineCode=254872548704010703_3  Length=0.03139  Units=km
New Line.3_238_BTUB  Phases=3  Bus1=BT2788.1.2.3.0  Bus2=BT2784.1.2.3.0   LineCode=254892548904010703_3  Length=0.00735  Units=km
New Line.3_243_BTUB  Phases=3  Bus1=BT2791.1.2.3.0  Bus2=BT2792.1.2.3.0   LineCode=254892548904010703_3  Length=0.02872  Units=km
New Line.3_236_BTUB  Phases=3  Bus1=BT2786.1.2.3.0  Bus2=BT2785.1.2.3.0   LineCode=254872548704010703_3  Length=0.02774  Units=km
New Line.3_245_BTUB  Phases=3  Bus1=BT2795.1.2.3.0  Bus2=BT2793.1.2.3.0   LineCode=254872548704010703_3  Length=0.04162  Units=km
New Line.3_232_BTUB  Phases=3  Bus1=BT2780.1.2.3.0  Bus2=BT2781.1.2.3.0   LineCode=254892548904010703_3  Length=0.02872  Units=km
New Line.3_235_BTUB  Phases=3  Bus1=BT2785.1.2.3.0  Bus2=BT2782.1.2.3.0   LineCode=254872548704010703_3  Length=0.03  Units=km
New Line.3_239_BTUB  Phases=3  Bus1=BT2787.1.2.3.0  Bus2=BT2789.1.2.3.0   LineCode=254872548704010703_3  Length=0.03195  Units=km
New Line.3_244_BTUB  Phases=3  Bus1=BT2793.1.2.3.0  Bus2=BT2794.1.2.3.0   LineCode=254872548704010703_3  Length=0.03322  Units=km
New Line.3_248_BTUB  Phases=3  Bus1=BT2796.1.2.3.0  Bus2=BT2798.1.2.3.0   LineCode=254892548904010703_3  Length=0.03195  Units=km
New Line.3_249_BTUB  Phases=3  Bus1=BT2797.1.2.3.0  Bus2=BT2799.1.2.3.0   LineCode=254872548704010703_3  Length=0.04065  Units=km
New Line.3_233_BTUB  Phases=3  Bus1=BT2782.1.2.3.0  Bus2=BT2783.1.2.3.0   LineCode=254872548704010703_3  Length=0.02872  Units=km
New Line.3_241_BTUB  Phases=3  Bus1=BT2789.1.2.3.0  Bus2=BT2790.1.2.3.0   LineCode=254872548704010703_3  Length=0.02452  Units=km
New Line.4_432_BTUB  Phases=3  Bus1=BT3002.1.2.3.0  Bus2=BT2994.1.2.3.0   LineCode=254892548904010703_3  Length=0.02388  Units=km
New Line.4_437_BTUB  Phases=3  Bus1=BT3006.1.2.3.0  Bus2=BT3007.1.2.3.0   LineCode=254892548904010703_3  Length=0.02872  Units=km
New Line.4_434_BTUB  Phases=3  Bus1=BT3003.1.2.3.0  Bus2=BT3004.1.2.3.0   LineCode=254892548904010703_3  Length=0.03195  Units=km
New Line.4_438_BTUB  Phases=3  Bus1=BT3007.1.2.3.0  Bus2=BT3005.1.2.3.0   LineCode=254892548904010703_3  Length=0.00721  Units=km
New Line.4_430_BTUB  Phases=3  Bus1=BT3001.1.2.3.0  Bus2=BT3000.1.2.3.0   LineCode=254872548704010703_3  Length=0.02258  Units=km
New Line.4_439_BTUB  Phases=3  Bus1=BT3004.1.2.3.0  Bus2=BT3008.1.2.3.0   LineCode=254872548704010703_3  Length=0.03097  Units=km
New Line.4_441_BTUB  Phases=3  Bus1=BT3010.1.2.3.0  Bus2=BT3011.1.2.3.0   LineCode=254872548704010703_3  Length=0.03322  Units=km
New Line.4_429_BTUB  Phases=3  Bus1=BT3000.1.2.3.0  Bus2=BT2996.1.2.3.0   LineCode=254872548704010703_3  Length=0.02581  Units=km
New Line.4_444_BTUB  Phases=3  Bus1=BT3008.1.2.3.0  Bus2=BT3014.1.2.3.0   LineCode=254872548704010703_3  Length=0.02774  Units=km
New Line.4_428_BTUB  Phases=3  Bus1=BT2998.1.2.3.0  Bus2=BT2999.1.2.3.0   LineCode=254872548704010703_3  Length=0.03097  Units=km
New Line.4_442_BTUB  Phases=3  Bus1=BT3009.1.2.3.0  Bus2=BT3012.1.2.3.0   LineCode=254872548704010703_3  Length=0.03097  Units=km
New Line.4_427_BTUB  Phases=3  Bus1=BT2996.1.2.3.0  Bus2=BT2997.1.2.3.0   LineCode=254872548704010703_3  Length=0.02258  Units=km
New Line.4_443_BTUB  Phases=3  Bus1=BT3012.1.2.3.0  Bus2=BT3013.1.2.3.0   LineCode=254872548704010703_3  Length=0.02355  Units=km
New Line.4_446_BTUB  Phases=3  Bus1=BT3017.1.2.3.0  Bus2=BT3015.1.2.3.0   LineCode=254872548704010703_3  Length=0.02903  Units=km
New Line.4_445_BTUB  Phases=3  Bus1=BT3015.1.2.3.0  Bus2=BT3016.1.2.3.0   LineCode=254872548704010703_3  Length=0.02452  Units=km
New Line.5_525_BTUB  Phases=3  Bus1=BT3100.1.2.3.0  Bus2=BT3103.1.2.3.0   LineCode=254892548904010703_3  Length=0.02872  Units=km
New Line.5_524_BTUB  Phases=3  Bus1=BT3101.1.2.3.0  Bus2=BT3102.1.2.3.0   LineCode=254872548704010703_3  Length=0.03195  Units=km
New Line.5_526_BTUB  Phases=3  Bus1=BT3103.1.2.3.0  Bus2=BT3104.1.2.3.0   LineCode=254892548904010703_3  Length=0.0255  Units=km
New Line.5_520_BTUB  Phases=3  Bus1=BT3096.1.2.3.0  Bus2=BT3097.1.2.3.0   LineCode=254872548704010703_3  Length=0.03549  Units=km
New Line.5_527_BTUB  Phases=3  Bus1=BT3102.1.2.3.0  Bus2=BT3105.1.2.3.0   LineCode=254872548704010703_3  Length=0.03  Units=km
New Line.6_317_BTUB  Phases=3  Bus1=BT2875.1.2.3.0  Bus2=BT2873.1.2.3.0   LineCode=254892548904010703_3  Length=0.02388  Units=km
New Line.6_320_BTUB  Phases=3  Bus1=BT2876.1.2.3.0  Bus2=BT2877.1.2.3.0   LineCode=254892548904010703_3  Length=0.02452  Units=km
New Line.6_314_BTUB  Phases=3  Bus1=BT2871.1.2.3.0  Bus2=BT2872.1.2.3.0   LineCode=254872548704010703_3  Length=0.02774  Units=km
New Line.7_550_BTUB  Phases=3  Bus1=BT3132.1.2.3.0  Bus2=BT3130.1.2.3.0   LineCode=254892548904010703_3  Length=0.0255  Units=km
New Line.7_553_BTUB  Phases=3  Bus1=BT3133.1.2.3.0  Bus2=BT3134.1.2.3.0   LineCode=254892548904010703_3  Length=0.03225  Units=km
New Line.7_549_BTUB  Phases=3  Bus1=BT3130.1.2.3.0  Bus2=BT3131.1.2.3.0   LineCode=254892548904010703_3  Length=0.03968  Units=km
New Line.9_745_BTUB  Phases=3  Bus1=BT3337.1.2.3.0  Bus2=BT3338.1.2.3.0   LineCode=254892548904010703_3  Length=0.02903  Units=km
New Line.10_470_BTUB  Phases=3  Bus1=BT3045.1.2.3.0  Bus2=BT3040.1.2.3.0   LineCode=254872548704010703_3  Length=0.01648  Units=km
New Line.10_473_BTUB  Phases=3  Bus1=BT3045.1.2.3.0  Bus2=BT3042.1.2.3.0   LineCode=254892548904010703_3  Length=0.01005  Units=km
New Line.10_476_BTUB  Phases=3  Bus1=BT3045.1.2.3.0  Bus2=BT3051.1.2.3.0   LineCode=254872548704010703_3  Length=0.01861  Units=km
New Line.10_478_BTUB  Phases=3  Bus1=BT3050.1.2.3.0  Bus2=BT3053.1.2.3.0   LineCode=254892548904010703_3  Length=0.03  Units=km
New Line.10_467_BTUB  Phases=3  Bus1=BT3040.1.2.3.0  Bus2=BT3041.1.2.3.0   LineCode=254872548704010703_3  Length=0.02581  Units=km
New Line.10_487_BTUB  Phases=3  Bus1=BT3042.1.2.3.0  Bus2=BT3048.1.2.3.0   LineCode=254872548704010703_3  Length=0.00777  Units=km
New Line.10_468_BTUB  Phases=3  Bus1=BT3042.1.2.3.0  Bus2=BT3038.1.2.3.0   LineCode=254872548704010703_3  Length=0.02774  Units=km
New Line.10_472_BTUB  Phases=3  Bus1=BT3042.1.2.3.0  Bus2=BT3046.1.2.3.0   LineCode=254892548904010703_3  Length=0.00612  Units=km
New Line.10_479_BTUB  Phases=3  Bus1=BT3051.1.2.3.0  Bus2=BT3054.1.2.3.0   LineCode=254872548704010703_3  Length=0.03  Units=km
New Line.10_480_BTUB  Phases=3  Bus1=BT3053.1.2.3.0  Bus2=BT3055.1.2.3.0   LineCode=254892548904010703_3  Length=0.02774  Units=km